github.com/0xbenc/0xbenc
github.com/0xbenc/prmvl
github.com/0xbenc/recipes
github.com/ARM-software/AArch64cryptolib
github.com/ARM-software/ATP-Engine
github.com/ARM-software/ATS-Keyword
github.com/ARM-software/AVH
github.com/ARM-software/AVH-AWS_MQTT_Demo
github.com/ARM-software/AVH-GetStarted
github.com/ARM-software/AVH-MLOps
github.com/ARM-software/AVH-SystemModeling
github.com/ARM-software/AVH-TFLmicrospeech
github.com/ARM-software/Arm-2D
github.com/ARM-software/B-U585I-IOT02A-avh-demo
github.com/ARM-software/BarrierPoint
github.com/ARM-software/CMSIS-Compiler
github.com/ARM-software/CMSIS-DAP
github.com/ARM-software/CMSIS-DSP
github.com/ARM-software/CMSIS-Driver
github.com/ARM-software/CMSIS-Driver_Validation
github.com/ARM-software/CMSIS-Musca-S1
github.com/ARM-software/CMSIS-NN
github.com/ARM-software/CMSIS-RTOS2_Validation
github.com/ARM-software/CMSIS-RTX
github.com/ARM-software/CMSIS-Stream
github.com/ARM-software/CMSIS-TFM
github.com/ARM-software/CMSIS-View
github.com/ARM-software/CMSIS-Zone
github.com/ARM-software/CMSIS_4
github.com/ARM-software/CMSIS_5
github.com/ARM-software/CMSIS_6
github.com/ARM-software/CPA
github.com/ARM-software/CSAL
github.com/ARM-software/Cloud-IoT-Core-Kit-Examples
github.com/ARM-software/ComputeLibrary
github.com/ARM-software/Cortex_DFP
github.com/ARM-software/Cryptocell-703-TEE-Lib
github.com/ARM-software/Cryptocell-713-TEE-Lib
github.com/ARM-software/DeepFreeze
github.com/ARM-software/EndpointAI
github.com/ARM-software/HPCG_for_Arm
github.com/ARM-software/HWCPipe
github.com/ARM-software/LLVM-embedded-toolchain-for-Arm
github.com/ARM-software/MCU-demo-for-AVS
github.com/ARM-software/MDK-Middleware
github.com/ARM-software/ML-KWS-for-MCU
github.com/ARM-software/ML-examples
github.com/ARM-software/ML-restructurable-activation-networks
github.com/ARM-software/ML-restructurable-activation-networks-pretrained
github.com/ARM-software/ML-zoo
github.com/ARM-software/Methodology_for_ArmIE_SVE
github.com/ARM-software/NXP_Kinetis
github.com/ARM-software/NXP_LPC
github.com/ARM-software/NXP_iMX
github.com/ARM-software/PAF
github.com/ARM-software/SCALE-Sim
github.com/ARM-software/SCP-firmware
github.com/ARM-software/SDS-Framework
github.com/ARM-software/Shackleton-Framework
github.com/ARM-software/TZ-TRNG
github.com/ARM-software/Tool-Solutions
github.com/ARM-software/abi-aa
github.com/ARM-software/acle
github.com/ARM-software/arm-enterprise-acs
github.com/ARM-software/arm-hpc-tools
github.com/ARM-software/arm-systemready
github.com/ARM-software/arm-trusted-firmware
github.com/ARM-software/armnn-mlperf
github.com/ARM-software/armour
github.com/ARM-software/asl-interpreter
github.com/ARM-software/astc-encoder
github.com/ARM-software/avh-api
github.com/ARM-software/avhclient
github.com/ARM-software/bart
github.com/ARM-software/bbr-acs
github.com/ARM-software/bento-autobentifier
github.com/ARM-software/bento-linker
github.com/ARM-software/bm-plotter
github.com/ARM-software/bob-build
github.com/ARM-software/bootwrapper
github.com/ARM-software/bsa-acs
github.com/ARM-software/caiman
github.com/ARM-software/cca-rmm-acs
github.com/ARM-software/cmsis-actions
github.com/ARM-software/cmsis-pack-eclipse
github.com/ARM-software/core-benchmarks
github.com/ARM-software/coresight-wire-protocol
github.com/ARM-software/cryptocell-312-runtime
github.com/ARM-software/daq-server
github.com/ARM-software/data
github.com/ARM-software/developer
github.com/ARM-software/devlib
github.com/ARM-software/drm-hwcomposer
github.com/ARM-software/ebbr
github.com/ARM-software/embedded-development-services-client
github.com/ARM-software/embedded-development-services-client-utils
github.com/ARM-software/ethos-n-driver-stack
github.com/ARM-software/fast-probabilistic-models
github.com/ARM-software/ff-a-acs
github.com/ARM-software/fluent-bit-modbus-plugin
github.com/ARM-software/gator
github.com/ARM-software/golang-utils
github.com/ARM-software/infra-microbenchmarks
github.com/ARM-software/iot-platform-sw
github.com/ARM-software/keyword-transformer
github.com/ARM-software/ktx-creator
github.com/ARM-software/lavatube
github.com/ARM-software/libGPUInfo
github.com/ARM-software/libTLE
github.com/ARM-software/libcollector
github.com/ARM-software/libddssec
github.com/ARM-software/linux
github.com/ARM-software/lisa
github.com/ARM-software/llram-kernel-driver-for-Cortex-R
github.com/ARM-software/m-profile-user-guide-examples
github.com/ARM-software/m0n0-library-and-examples
github.com/ARM-software/mango
github.com/ARM-software/meabo
github.com/ARM-software/ml_style_transfer_post_processing_on_mobile
github.com/ARM-software/mram_simulation_framework
github.com/ARM-software/nomali-model
github.com/ARM-software/odp-example-sisu
github.com/ARM-software/odroidn2
github.com/ARM-software/ohpc-config
github.com/ARM-software/open-iot-sdk
github.com/ARM-software/opengl-es-sdk-for-android
github.com/ARM-software/optimized-routines
github.com/ARM-software/patrace
github.com/ARM-software/perf-libs-tools
github.com/ARM-software/perfdoc
github.com/ARM-software/performance-studio-integration-for-unity
github.com/ARM-software/perfsage
github.com/ARM-software/progress64
github.com/ARM-software/psa-api
github.com/ARM-software/psa-arch-tests
github.com/ARM-software/psa-firmware-update-spec
github.com/ARM-software/rasc-devkit
github.com/ARM-software/revere-demo
github.com/ARM-software/rme-sysarch-acs
github.com/ARM-software/sbmr-acs
github.com/ARM-software/sbsa-acs
github.com/ARM-software/scalpel
github.com/ARM-software/scmi-tests
github.com/ARM-software/sdm-api
github.com/ARM-software/secure-debug-manager
github.com/ARM-software/server-data-plane
github.com/ARM-software/sesr
github.com/ARM-software/smart_proxy_realm_activedirectory
github.com/ARM-software/speculation-barrier
github.com/ARM-software/synchronization-benchmarks
github.com/ARM-software/tarmac-trace-utilities
github.com/ARM-software/tf-issues
github.com/ARM-software/toolchain
github.com/ARM-software/toolchain-gnu-bare-metal
github.com/ARM-software/tracetooltests
github.com/ARM-software/trappy
github.com/ARM-software/tspfnbeats
github.com/ARM-software/u-boot
github.com/ARM-software/vktrace-arm
github.com/ARM-software/vr-sdk-for-android
github.com/ARM-software/vscode-arm-debugger
github.com/ARM-software/vscode-cmsis-csolution
github.com/ARM-software/vscode-device-manager
github.com/ARM-software/vscode-embedded-debug
github.com/ARM-software/vscode-environment-manager
github.com/ARM-software/vscode-keil-studio-pack
github.com/ARM-software/vscode-remote-build
github.com/ARM-software/vscode-virtual-hardware
github.com/ARM-software/vulkan-sdk
github.com/ARM-software/vulkan_best_practice_for_mobile_developers
github.com/ARM-software/workload-automation
github.com/ARM-software/workload-automation-assets
github.com/AdrianKoshka/AIS
github.com/AdrianKoshka/adriankoshka
github.com/AdrianKoshka/alpine-hugo
github.com/AdrianKoshka/alpine-mkdocs
github.com/AdrianKoshka/ansible-lint-container
github.com/AdrianKoshka/bach-papers
github.com/AdrianKoshka/bash-scripts
github.com/AdrianKoshka/blog
github.com/AdrianKoshka/brew
github.com/AdrianKoshka/capture_colourschemes
github.com/AdrianKoshka/career-project
github.com/AdrianKoshka/creative-resume
github.com/AdrianKoshka/fedora-latex
github.com/AdrianKoshka/flatpak-tools
github.com/AdrianKoshka/gunmetal
github.com/AdrianKoshka/ipxe-scripts
github.com/AdrianKoshka/javalang
github.com/AdrianKoshka/lite-updater
github.com/AdrianKoshka/macc-nixcfg
github.com/AdrianKoshka/macc-uefi-build-script
github.com/AdrianKoshka/misc-ipxe-stuff
github.com/AdrianKoshka/nixcfg
github.com/AdrianKoshka/nths-papers
github.com/AdrianKoshka/obya
github.com/AdrianKoshka/open-art
github.com/AdrianKoshka/openindiana-docs
github.com/AdrianKoshka/p8-playbook
github.com/AdrianKoshka/playbooks
github.com/AdrianKoshka/pwsh-profile
github.com/AdrianKoshka/scholarship-paper
github.com/AdrianKoshka/sent-example
github.com/AdrianKoshka/streams
github.com/AdrianKoshka/test
github.com/AdrianKoshka/toolchain-for-ddr-code
github.com/AdrianKoshka/travis-quay-tutorial
github.com/AdrianKoshka/vc-existentialism
github.com/AdrianKoshka/viscom-projects
github.com/AdrianKoshka/windows-hugo
github.com/Airspace-Encounter-Models/airspace-encounter-models.github.io
github.com/Airspace-Encounter-Models/em-core
github.com/Airspace-Encounter-Models/em-model-geospatial
github.com/Airspace-Encounter-Models/em-overview
github.com/Amebis/GEANTLink
github.com/Amebis/GEANTLink-dist
github.com/Amebis/MSIBuild
github.com/Amebis/MSICA
github.com/Amebis/MSICALib
github.com/Amebis/MacStd
github.com/Amebis/Updater
github.com/Amebis/WinStd
github.com/Amebis/ZRCola
github.com/Amebis/atlex
github.com/Amebis/eduEd25519
github.com/Amebis/eduEx
github.com/Amebis/eduJSON
github.com/Amebis/eduLibsodium
github.com/Amebis/eduOAuth
github.com/Amebis/nodebb-plugin-svetovalnica
github.com/Amebis/stdex
github.com/Amebis/wxExtend
github.com/Amebis/wxMSM
github.com/ArneBachmann/ASYOC
github.com/ArneBachmann/MAFF2HTML
github.com/ArneBachmann/PyLUT
github.com/ArneBachmann/awful
github.com/ArneBachmann/configr
github.com/ArneBachmann/realestate-sunamount
github.com/ArneBachmann/rsyncr
github.com/ArneBachmann/tagsplorer
github.com/ArneBachmann/termwidth
github.com/Azure/-Microsoft-Defender-for-IoT
github.com/Azure/.github
github.com/Azure/2020-machine-learning-security-evasion-competition
github.com/Azure/2021-machine-learning-security-evasion-competition
github.com/Azure/3DPinballAI
github.com/Azure/AAD.fs
github.com/Azure/ACE_Azure_ML
github.com/Azure/ACS
github.com/Azure/ACS-Deployment-Tutorial
github.com/Azure/ACSS-preview
github.com/Azure/ADAW
github.com/Azure/ADLAwithR-GettingStarted
github.com/Azure/ADX-in-a-Day
github.com/Azure/ADX-in-a-Day-Lab1
github.com/Azure/ADX-in-a-Day-Lab2
github.com/Azure/ADXIoTAnalytics
github.com/Azure/AI-IaC-Prompts
github.com/Azure/AI-PredictiveMaintenance
github.com/Azure/AI-Security-Risk-Assessment
github.com/Azure/AI-in-Production-Guide
github.com/Azure/AI-in-a-Box
github.com/Azure/AKS
github.com/Azure/AKS-Construction
github.com/Azure/AKS-DevSecOps-Workshop
github.com/Azure/AKS-Edge
github.com/Azure/AKS-Edge-Labs
github.com/Azure/AKS-Landing-Zone-Accelerator
github.com/Azure/AKS-Performance-and-Scale
github.com/Azure/AKS_CAF_SolutionFactory
github.com/Azure/ALAR
github.com/Azure/ALZ-Bicep
github.com/Azure/ALZ-PowerShell-Module
github.com/Azure/AML-AirField
github.com/Azure/AML-Kubernetes
github.com/Azure/AMS-Migration
github.com/Azure/AOAI-workshop
github.com/Azure/AP5GC-Vendor-Tools
github.com/Azure/API-Management
github.com/Azure/API-Portal
github.com/Azure/APICenter-Analyzer
github.com/Azure/APICenter-Portal-Starter
github.com/Azure/APIManagement-Authorizations
github.com/Azure/ARM-private-deployment
github.com/Azure/ARMTemplates
github.com/Azure/ARO-HCP
github.com/Azure/ARO-Landing-Zone-Accelerator
github.com/Azure/ARO-RP
github.com/Azure/AROPBMMPubSec
github.com/Azure/ASC-go-libs
github.com/Azure/ASE_automation_for_AP5GC
github.com/Azure/AVDBlueprint
github.com/Azure/AVDSessionHostReplacer
github.com/Azure/AZNFS-mount
github.com/Azure/Accelerator-Gaming
github.com/Azure/Accelerator-Power-Apps
github.com/Azure/Accord-NET
github.com/Azure/AgentBaker
github.com/Azure/AirflowMeetHyderabadDemo2023
github.com/Azure/AksHcionAzureVM
github.com/Azure/AliyunMigration
github.com/Azure/AnalyticsinaBox
github.com/Azure/AnomalyDetection-API
github.com/Azure/Ansible
github.com/Azure/AnsibleCollection
github.com/Azure/Apigee_to_APIM_migration_tool
github.com/Azure/App-Service-Migration-Assistant
github.com/Azure/AppConfiguration
github.com/Azure/AppConfiguration-Announcements
github.com/Azure/AppConfiguration-DotnetProvider
github.com/Azure/AppConfiguration-JavaScriptProvider
github.com/Azure/AppConfiguration-KubernetesProvider
github.com/Azure/AppConfiguration-Sync
github.com/Azure/AppService
github.com/Azure/Apps-DB-Mongo-AI
github.com/Azure/ArcEnabledServersGroupPolicy
github.com/Azure/ArcOnAVS
github.com/Azure/ArcOnAVSInternal
github.com/Azure/ArcResourceBridge
github.com/Azure/ArchiveFeatureSupport
github.com/Azure/ArtistAnywhere
github.com/Azure/Asteroid
github.com/Azure/AtUniverse
github.com/Azure/AutoML-Distributed-Training-For-Tabular
github.com/Azure/AutoML-vNext-Preview
github.com/Azure/Automated-AEgir-Host-Configuration-for-Drupal-on-Azure-VMSS
github.com/Azure/Avere
github.com/Azure/AvereSDK
github.com/Azure/AzBulkSetBlobTier
github.com/Azure/AzDataMaker
github.com/Azure/AzLoadBalancerMigration
github.com/Azure/AzMigrate-Hydration
github.com/Azure/AzMultiProtocolAccess
github.com/Azure/AzOps
github.com/Azure/AzOps-Accelerator
github.com/Azure/AzOps-GitLab-Starter
github.com/Azure/AzReplicate
github.com/Azure/AzStorageOpenSourceRepoTemplate
github.com/Azure/AzSwaggerSpecsTestClone
github.com/Azure/Azure-AI-Camp
github.com/Azure/Azure-AI-Content-Safety-Private-Preview
github.com/Azure/Azure-Apache-Migration-Tool
github.com/Azure/Azure-AppServices-Diagnostics
github.com/Azure/Azure-Backlog-Generator
github.com/Azure/Azure-Blazor-Static-Samples
github.com/Azure/Azure-Center-for-SAP-solutions
github.com/Azure/Azure-China-Migration-Playbook
github.com/Azure/Azure-CloudIntelligence-SolutionAuthoringWorkspace
github.com/Azure/Azure-Data-Factory-Integration-Runtime-in-Windows-Container
github.com/Azure/Azure-Data-Service-Notebook
github.com/Azure/Azure-DataFactory
github.com/Azure/Azure-Functions
github.com/Azure/Azure-Governance-Visualizer
github.com/Azure/Azure-Governance-Visualizer-Accelerator
github.com/Azure/Azure-Health-Extension
github.com/Azure/Azure-IoT-Security
github.com/Azure/Azure-IoT-Security-Agent-CS
github.com/Azure/Azure-Kusto-Render
github.com/Azure/Azure-Landing-Zones-Library
github.com/Azure/Azure-Lighthouse-samples
github.com/Azure/Azure-ML-Interpretability_2020
github.com/Azure/Azure-Machine-Learning-Adoption-Framework
github.com/Azure/Azure-MachineLearning-ClientLibrary-R
github.com/Azure/Azure-Maps-Style-Editor
github.com/Azure/Azure-Maps-plugin-for-QGIS
github.com/Azure/Azure-Media-Services-Explorer
github.com/Azure/Azure-Migration-Guidance
github.com/Azure/Azure-Monitor-for-SAP-solutions-preview
github.com/Azure/Azure-Network-Security
github.com/Azure/Azure-Networking
github.com/Azure/Azure-Orbital-Analytics-Samples
github.com/Azure/Azure-Orbital-STAC
github.com/Azure/Azure-Proactive-Resiliency-Library
github.com/Azure/Azure-Proactive-Resiliency-Library-v2
github.com/Azure/Azure-Purview-API-PowerShell
github.com/Azure/Azure-Purview-Starter-Kit
github.com/Azure/Azure-Sentinel
github.com/Azure/Azure-Sentinel-BYOML
github.com/Azure/Azure-Sentinel-Notebooks
github.com/Azure/Azure-Spring-Apps
github.com/Azure/Azure-TDSP-ProjectTemplate
github.com/Azure/Azure-TDSP-Utilities
github.com/Azure/Azure-Verified-Modules
github.com/Azure/Azure-Verified-Modules-Grept
github.com/Azure/Azure-Websites-Migration-Tool
github.com/Azure/Azure-Workload-Backup-Troubleshooting-Scripts
github.com/Azure/Azure-standardization-guideline
github.com/Azure/Azure-vpn-config-samples
github.com/Azure/Azure.Mobile
github.com/Azure/AzureAD-App-Docs
github.com/Azure/AzureAD-AppSecretManager
github.com/Azure/AzureAD-BYOA-Provisioning-Samples
github.com/Azure/AzureAdvisor
github.com/Azure/AzureAuth
github.com/Azure/AzureBCDR_TLSSettings
github.com/Azure/AzureBackupKBDocs
github.com/Azure/AzureBudgetAlert-in-Teams
github.com/Azure/AzureCacheForRedis
github.com/Azure/AzureChestXRay
github.com/Azure/AzureCognitive
github.com/Azure/AzureConnectedMachineDsc
github.com/Azure/AzureContainers
github.com/Azure/AzureCosmosR
github.com/Azure/AzureDSVM
github.com/Azure/AzureDataLake
github.com/Azure/AzureDatabricksBestPractices
github.com/Azure/AzureDefender-K8S-InClusterDefense
github.com/Azure/AzureGovernedPipelines
github.com/Azure/AzureGraph
github.com/Azure/AzureJanitor
github.com/Azure/AzureKeyVault
github.com/Azure/AzureKusto
github.com/Azure/AzureML-Containers
github.com/Azure/AzureML-Modules
github.com/Azure/AzureML-NLP
github.com/Azure/AzureML-Recommendation-RRS
github.com/Azure/AzureML-fastai
github.com/Azure/AzureMLGallery
github.com/Azure/AzureMonitorForVMs-ArmTemplates
github.com/Azure/AzureMonitorStarterPacks
github.com/Azure/AzureNotificationHubs
github.com/Azure/AzurePrivatePodspecs
github.com/Azure/AzurePublicDataset
github.com/Azure/AzureQstor
github.com/Azure/AzureQuickStartsProjects
github.com/Azure/AzureR
github.com/Azure/AzureRMR
github.com/Azure/AzureSqlBulkFailover
github.com/Azure/AzureStack-QuickStart-Templates
github.com/Azure/AzureStack-Tools
github.com/Azure/AzureStackHCI-EvalGuide
github.com/Azure/AzureStackHci-quickStart-templates
github.com/Azure/AzureStor
github.com/Azure/AzureTableStor
github.com/Azure/AzureTestDrive
github.com/Azure/AzureVM
github.com/Azure/AzureVMmetadata
github.com/Azure/AzureVision
github.com/Azure/Azure_Synapse_RealTimeSync_Using_AtlasTrigger_and_AzureFunction
github.com/Azure/Azureml-ResponsibleAI-Preview
github.com/Azure/Azureml-Snapshot-Tests-Public-Repo
github.com/Azure/Azurite
github.com/Azure/Batch
github.com/Azure/Batch-Scoring-Deep-Learning-Models-With-AKS
github.com/Azure/BatchAIAnomalyDetection
github.com/Azure/BatchExplorer
github.com/Azure/BatchExplorer-data
github.com/Azure/BatchLabs-data
github.com/Azure/BatchSparkScoringPredictiveMaintenance
github.com/Azure/BillingCodeSamples
github.com/Azure/Bio-Compliancy
github.com/Azure/BlobNFS-wsl2
github.com/Azure/Bridge-To-Kubernetes
github.com/Azure/Build-Modern-AI-Apps
github.com/Azure/Build-Modern-AI-Apps-Hackathon
github.com/Azure/Build2021-PowerPlatform
github.com/Azure/BuildYourOwnCopilot
github.com/Azure/BusinessContinuityGuide
github.com/Azure/CAE-Bits
github.com/Azure/CAF_SQL_SolutionFactory
github.com/Azure/CAF_WVD_SolutionFactory
github.com/Azure/CARML-Learn
github.com/Azure/CCOInsights
github.com/Azure/CCOtemp
github.com/Azure/CIQS-Azure-Cli-Extension
github.com/Azure/CIS-Extension-IoT-Solution-Predictive-Maintenance
github.com/Azure/CONVEX
github.com/Azure/CSAPI
github.com/Azure/CSU-Blogs
github.com/Azure/CacheBrowns
github.com/Azure/CanadaPubSecALZ
github.com/Azure/Cerberus-Utility
github.com/Azure/ChangeAnalysisInsights
github.com/Azure/China-AI-Solutions
github.com/Azure/China-Data-Solutions
github.com/Azure/CityPower-Build-Sample
github.com/Azure/Cloud-Data-Security
github.com/Azure/Cloud-Katana
github.com/Azure/Cloud-Native
github.com/Azure/CloudESPipeline
github.com/Azure/CloudIoTHack
github.com/Azure/CloudShell
github.com/Azure/Cognitive-RecommendationsAPI-DynamicsAX2012R3-Samples
github.com/Azure/Commercial-Marketplace-SaaS-Accelerator
github.com/Azure/Commercial-Marketplace-SaaS-Accelerator-Offer
github.com/Azure/CommercialConfidentialCompute
github.com/Azure/Communication
github.com/Azure/Community-Policy
github.com/Azure/ConferenceBuddy
github.com/Azure/Copilot-For-Security
github.com/Azure/CosmosDB-GBB-Hackathon
github.com/Azure/CostManagement-To-Kusto
github.com/Azure/CustomerReviewDataAnalyticsTutorial
github.com/Azure/CycleCloud
github.com/Azure/DAICE_DatabricksSparkDevOps
github.com/Azure/DAICE_DateEstateDevOps
github.com/Azure/DW-with-Synapse-Data-Factory-Power-BI
github.com/Azure/DaaS
github.com/Azure/DataEngineering
github.com/Azure/DataProtectionPlatformGoPluginSDK
github.com/Azure/DataScienceVM
github.com/Azure/Databricks360
github.com/Azure/DatatypeChannels.ASB
github.com/Azure/DecisionTreeExplorer
github.com/Azure/DeepLearningForTimeSeriesForecasting
github.com/Azure/DeepLearningModelDeployment
github.com/Azure/Deploying-Apache-Guacamole-on-Azure
github.com/Azure/DevOps-For-AI-Apps
github.com/Azure/DevOps-Self-Hosted
github.com/Azure/DigitalTwins-Helper-Library
github.com/Azure/DiskInfo
github.com/Azure/DistributedDeepLearning
github.com/Azure/DotNetty
github.com/Azure/EasyAuthForK8s
github.com/Azure/Edge-infrastructure-quickstart-template
github.com/Azure/Embarrassingly-Parallel-Image-Classification
github.com/Azure/Enterprise-Scale
github.com/Azure/Enterprise-Scale-for-AKS
github.com/Azure/Enterprise-Scale-for-AVS
github.com/Azure/FTA-APACSentinel
github.com/Azure/FTA-SecOps-Tools-Guides
github.com/Azure/FTA-WelcomeKits
github.com/Azure/FTALive-Sessions
github.com/Azure/FXT
github.com/Azure/Feathr
github.com/Azure/Fishy-Business
github.com/Azure/Fleet-PRSE
github.com/Azure/Forms-Recognizer-Benchmarking
github.com/Azure/ForresterDemo
github.com/Azure/GBB-OSS
github.com/Azure/GBB-SEC
github.com/Azure/GHPolicyTest
github.com/Azure/GPT-RAG
github.com/Azure/Guest-Configuration-Extension
github.com/Azure/GuestConfiguration
github.com/Azure/GuestProxyAgent
github.com/Azure/Guidance-Observability
github.com/Azure/HDInsight
github.com/Azure/HDInsight-on-AKS
github.com/Azure/HPC-Accelerator
github.com/Azure/Hadoop-Migrations
github.com/Azure/Hangman
github.com/Azure/Hci-quickstart-templates
github.com/Azure/Health-Data-and-AI-Blueprint
github.com/Azure/HuggingFace-on-Azure-Databricks
github.com/Azure/Hyperledger-Fabric-on-Azure-Kubernetes-Service
github.com/Azure/ISD-Skills-Guild
github.com/Azure/IaC-Telemetry
github.com/Azure/Ignite2019_IaC_pre-day_docs
github.com/Azure/ImageClassificationUsingCntk
github.com/Azure/ImageSimilarityUsingCntk
github.com/Azure/Industrial-IoT
github.com/Azure/Industrial-IoT-Gateway-Installer
github.com/Azure/InferenceSchema
github.com/Azure/InnovationEngine
github.com/Azure/Integration-Services-Landing-Zone-Accelerator
github.com/Azure/IntelligentEdgeHOL
github.com/Azure/IoT-Pi-Day
github.com/Azure/IoTC-Reserved-IoTHub-List
github.com/Azure/IoTTrainingPack
github.com/Azure/JMeter-SignalR
github.com/Azure/KAN
github.com/Azure/KDAHackathon
github.com/Azure/KDD2017R
github.com/Azure/KeyVault-AccessPolicyToRBAC-CompareTool
github.com/Azure/KeyVault-Secrets-Rotation-AADApp-PowerShell
github.com/Azure/KeyVault-Secrets-Rotation-CosmosDB-PowerShell
github.com/Azure/KeyVault-Secrets-Rotation-Redis-PowerShell
github.com/Azure/KeyVault-Secrets-Rotation-StorageAccount-PowerShell
github.com/Azure/KeyVault-Secrets-Rotation-Template-PowerShell
github.com/Azure/Keyvault-Rotation-Template-Powershell
github.com/Azure/Kusto-Lightingest
github.com/Azure/LAMP
github.com/Azure/LAMPStack-Azure-App-Service
github.com/Azure/LAMPStack-Azure-VirtualMachine
github.com/Azure/LabServices
github.com/Azure/Liftnshiftplus
github.com/Azure/LinuxPatchExtension
github.com/Azure/LinuxToolBox
github.com/Azure/LinuxToolBoxDevKit
github.com/Azure/LogicAppsTemplates
github.com/Azure/LogicAppsUX
github.com/Azure/LunaAIProjectTemplate
github.com/Azure/LunchBytes
github.com/Azure/MDEASM-Solutions
github.com/Azure/MDTI-Solutions
github.com/Azure/MLADS2017ML
github.com/Azure/MLAKSDeployment
github.com/Azure/MLOpenHack-ComputerVision
github.com/Azure/MLOps-TDSP-Template
github.com/Azure/MLWorkbenchTemplate
github.com/Azure/MS-AMP
github.com/Azure/MS-AMP-Examples
github.com/Azure/MachineLearningDesigner
github.com/Azure/MachineLearningNotebooks
github.com/Azure/MachineLearningSamples-AMLTextPackage-TwitterSentimentPrediction
github.com/Azure/MachineLearningSamples-NotebookTemplate
github.com/Azure/MediaEntertainment
github.com/Azure/Medical-Claims-Processing-Hackathon
github.com/Azure/Medical-Claims-Transaction-Processing-at-scale
github.com/Azure/Metrics-Advisor-for-Equipment
github.com/Azure/Microsoft-Defender-for-Cloud
github.com/Azure/Microsoft-TDSP
github.com/Azure/Microsoft.AVS.Management
github.com/Azure/Microsoft.AVS.Management-FCT
github.com/Azure/Microsoft.Azure.StackExchangeRedis
github.com/Azure/Microsoft.Extensions.Caching.Cosmos
github.com/Azure/Microsoft365R
github.com/Azure/Mission-Critical
github.com/Azure/Mission-Critical-Connected
github.com/Azure/Mission-Critical-Online
github.com/Azure/Moneo
github.com/Azure/Moodle
github.com/Azure/Multi-tenant-Landing-Zones
github.com/Azure/Multivariate-AD
github.com/Azure/NWPublicScripts
github.com/Azure/NetworkMonitoring
github.com/Azure/Networking
github.com/Azure/NoOpsAccelerator
github.com/Azure/Non-time-Series-Anomaly-Detection
github.com/Azure/OCPCHINATECH
github.com/Azure/OMSLabs
github.com/Azure/ObjectDetectionUsingCntk
github.com/Azure/OnBoardVMInsights
github.com/Azure/OpenApiExtensions
github.com/Azure/OpenDatasetsNotebooks
github.com/Azure/OpenShift
github.com/Azure/Oracle-Workloads-for-Azure
github.com/Azure/PSDocs.Azure
github.com/Azure/PSDocs.Azure-quickstart
github.com/Azure/PSRule.Rules.Azure
github.com/Azure/PSRule.Rules.Azure-quickstart
github.com/Azure/Performance-Efficiency-Scripts-SAP-ORA
github.com/Azure/Perks.net
github.com/Azure/Project-Cerberus
github.com/Azure/Project-Cerberus-manifest
github.com/Azure/Purview-Samples
github.com/Azure/Purview-Tools
github.com/Azure/PyRIT
github.com/Azure/PySpark-Predictive-Maintenance
github.com/Azure/QnA_Matching
github.com/Azure/RAI-vNext-Preview
github.com/Azure/RBatchScoring
github.com/Azure/RDP-AzureRepairScripts
github.com/Azure/RDS-Templates
github.com/Azure/RGCOPY
github.com/Azure/RSL
github.com/Azure/Real-Time-Transactions-Hackathon
github.com/Azure/Real-time-Payment-Transaction-Processing-at-Scale
github.com/Azure/RealTimeSync_Synapse-MongoDB
github.com/Azure/RealtimeRDeployment
github.com/Azure/Remote-Desktop-Services-Protocol-Sample
github.com/Azure/ResourceModules
github.com/Azure/RingMaster
github.com/Azure/S3ToAdl
github.com/Azure/SAP-automation-samples
github.com/Azure/SAP-on-Azure-Scripts-and-Utilities
github.com/Azure/SAPonAzure-CAF-SolutionFactory
github.com/Azure/SFNuGet
github.com/Azure/SQL-Connectivity-Checker
github.com/Azure/SQL-Migration-AzureSQL-PoC
github.com/Azure/SQL-Modernisation-Hack
github.com/Azure/SQL_CAF_SolutionFactory
github.com/Azure/SWIMDataIngestion
github.com/Azure/SaaS-Private-Connectivity
github.com/Azure/Sample-Chat-Completion-OpenAI-Infra
github.com/Azure/SampleRRAMTest
github.com/Azure/SampleVisionApi
github.com/Azure/Secure-Cross-Tenant-Azure-App-Access-with-Private-Endpoints
github.com/Azure/Secured-SaaS-Wallet
github.com/Azure/Security-and-Responsible-AI-Guide
github.com/Azure/ServerMigration_CAF_SolutionFactory
github.com/Azure/ServerlessLibrary
github.com/Azure/Service-Fabric-Troubleshooting-Guides
github.com/Azure/ServiceConnector
github.com/Azure/ShieldGuard
github.com/Azure/Sia-EventUI
github.com/Azure/Sia-Gateway
github.com/Azure/Sia-Playbook
github.com/Azure/Sia-Root
github.com/Azure/SimuLand
github.com/Azure/SmartDetectorsMonitoringAppliance
github.com/Azure/Solution-Architecture-Questions
github.com/Azure/Spark-Operationalization-On-Azure
github.com/Azure/Storage
github.com/Azure/Stormspotter
github.com/Azure/Strata2018
github.com/Azure/SwiftPM-AzureCommunicationChat
github.com/Azure/SwiftPM-AzureCommunicationCommon
github.com/Azure/SwiftPM-AzureCore
github.com/Azure/SwiftPM-AzureTemplate
github.com/Azure/Synapse
github.com/Azure/Synapse-Lake-Databases-Synthetic-Data-Generator
github.com/Azure/Synapse-workspace-deployment
github.com/Azure/SynapseAnalyticsSecured
github.com/Azure/SynapseEnterpriseCodebase
github.com/Azure/SynapseRTSEventGrid
github.com/Azure/SynapseRTSStorage
github.com/Azure/Template-Runbook-Using-Managed-Identity-to-access-AZureAD
github.com/Azure/TerraformModuleTelemetryService
github.com/Azure/Test-Drive-Azure-Synapse-with-a-1-click-POC
github.com/Azure/Test-Drive-Synapse-Link-For-CosmosDB-With-1-Click
github.com/Azure/Test-Drive-Synapse-Link-For-DataVerse
github.com/Azure/Test-Drive-Synapse-Link-For-SqlDB-With-1-Click
github.com/Azure/The-LLM-Latency-Guidebook-Optimizing-Response-Times-for-GenAI-Applications
github.com/Azure/Time-series-forecasting-using-CNTK
github.com/Azure/TypeEdge
github.com/Azure/UIAutomationFramework
github.com/Azure/USFSI-TS-Just-The-Docs-Template
github.com/Azure/Unreal-Pixel-Streaming
github.com/Azure/Vector-Search-AI-Assistant
github.com/Azure/Vector-Search-AI-Assistant-MongoDBvCore
github.com/Azure/Vector-Search-AI-Assistant-MongoDBvCore-Python-TS
github.com/Azure/VegaKVS
github.com/Azure/Verified-Telemetry
github.com/Azure/Verified-Telemetry-Device-Sample
github.com/Azure/Verified-Telemetry-Solution-Sample
github.com/Azure/VideoEditorialInTheCloud
github.com/Azure/Virtual-Machine-Restore-Points
github.com/Azure/Vision-AI-DevKit-Pages
github.com/Azure/WALinuxAgent
github.com/Azure/WVD_CAF_SolutionFactory
github.com/Azure/WebAndRazorWithVisualStudioForMac
github.com/Azure/Webjobs.Extensions.Kusto
github.com/Azure/WellArchitected-Tools
github.com/Azure/WinGuestAnalyzer
github.com/Azure/WindowsVMAgent
github.com/Azure/WordPress
github.com/Azure/WordPress-Azure-App-Service
github.com/Azure/WordPress-Azure-VirtualMachine
github.com/Azure/WorkloadBuilder
github.com/Azure/aace
github.com/Azure/aad-auth-proxy
github.com/Azure/aad-pod-identity
github.com/Azure/aad-pod-identity.io
github.com/Azure/aaz
github.com/Azure/aaz-dev-tools
github.com/Azure/abfs-backport
github.com/Azure/aca-dotnet-workshop
github.com/Azure/aca-java-runtimes-workshop
github.com/Azure/aca-java-runtimes-workshop-template
github.com/Azure/aca-landing-zone-accelerator
github.com/Azure/aca-review-apps
github.com/Azure/accelerator-bootstrap-modules
github.com/Azure/ace-dtis
github.com/Azure/ace-kma
github.com/Azure/ace-luna
github.com/Azure/aci-deploy
github.com/Azure/aci-support
github.com/Azure/acr
github.com/Azure/acr-build
github.com/Azure/acr-builder
github.com/Azure/acr-cli
github.com/Azure/acr-docker-credential-helper
github.com/Azure/acr-task-commands
github.com/Azure/acr-web-manager
github.com/Azure/acs-demos
github.com/Azure/acs-engine
github.com/Azure/action-release-workflows
github.com/Azure/actions
github.com/Azure/actions-toolkit
github.com/Azure/actions-workflow-samples
github.com/Azure/actions-workflow-templates
github.com/Azure/activate-genai
github.com/Azure/active-directory-dotnet-graphapi-b2bportal-web
github.com/Azure/active-learning-workshop
github.com/Azure/ade-extensibility-model-terraform
github.com/Azure/adl-rules-template
github.com/Azure/adlsgen1togen2migration
github.com/Azure/ads-extension-mongo-migration-assets
github.com/Azure/adx-automation-agent
github.com/Azure/adx-automation-client
github.com/Azure/adx-automation-monitor
github.com/Azure/adx-automation-services
github.com/Azure/aed-oobe
github.com/Azure/agw-pep-custom-names
github.com/Azure/ahds-reference-architecture
github.com/Azure/ahm-signal-manifest
github.com/Azure/ahm-templates
github.com/Azure/ai-hub
github.com/Azure/ai-solution-accelerators-list
github.com/Azure/ai-toolkit-iot-edge
github.com/Azure/aihub
github.com/Azure/aimazure
github.com/Azure/aimbiztalk
github.com/Azure/aimcore
github.com/Azure/aimmodel
github.com/Azure/aimtool
github.com/Azure/airflow-provider-azure-machinelearning
github.com/Azure/aistudio-copilot-sample
github.com/Azure/aks-advanced-autoscaling
github.com/Azure/aks-app
github.com/Azure/aks-app-routing-operator
github.com/Azure/aks-auditd
github.com/Azure/aks-baseline-automation
github.com/Azure/aks-baseline-windows
github.com/Azure/aks-best-practices
github.com/Azure/aks-bestpractices-ignite19
github.com/Azure/aks-canipull
github.com/Azure/aks-create-action
github.com/Azure/aks-demo
github.com/Azure/aks-deployer
github.com/Azure/aks-devx-tools
github.com/Azure/aks-engine
github.com/Azure/aks-engine-azurestack
github.com/Azure/aks-gbb-officehours
github.com/Azure/aks-github-runner
github.com/Azure/aks-gpu
github.com/Azure/aks-middleware
github.com/Azure/aks-node-ca-watcher
github.com/Azure/aks-periscope
github.com/Azure/aks-production-patterns
github.com/Azure/aks-rdma-infiniband
github.com/Azure/aks-secure-tls-bootstrap
github.com/Azure/aks-set-context
github.com/Azure/aks-spin-plugin
github.com/Azure/aks-traffic-manager
github.com/Azure/aks-troubleshooting-guides
github.com/Azure/aksArc
github.com/Azure/alz-monitor
github.com/Azure/alz-terraform-accelerator
github.com/Azure/alzlib
github.com/Azure/aml-compute
github.com/Azure/aml-configure
github.com/Azure/aml-deep-learning-examples
github.com/Azure/aml-deploy
github.com/Azure/aml-function
github.com/Azure/aml-object-classification-pipeline
github.com/Azure/aml-real-time-ai
github.com/Azure/aml-registermodel
github.com/Azure/aml-run
github.com/Azure/aml-template
github.com/Azure/aml-workspace
github.com/Azure/amlarc-conformance-test
github.com/Azure/amqp-common-js
github.com/Azure/amqpnetlite
github.com/Azure/ansible-aks
github.com/Azure/aoai-apim
github.com/Azure/aoai-smart-loadbalancing
github.com/Azure/api-center
github.com/Azure/api-management-developer-portal
github.com/Azure/api-management-policy-snippets
github.com/Azure/api-management-samples
github.com/Azure/api-management-self-hosted-gateway
github.com/Azure/api-management-self-hosted-gateway-ingress
github.com/Azure/apiforfhir-migration-tool
github.com/Azure/apim-aoai-smart-loadbalancing
github.com/Azure/apim-lab
github.com/Azure/apim-landing-zone-accelerator
github.com/Azure/apiops
github.com/Azure/app-configuration-import-action
github.com/Azure/app-service-announcements
github.com/Azure/app-service-announcements-discussions
github.com/Azure/app-service-builtin-images
github.com/Azure/app-service-linux-docs
github.com/Azure/app-service-quickstart-docker-images
github.com/Azure/app-service-windows-containers
github.com/Azure/appcat-docs
github.com/Azure/appcat-konveyor-rulesets
github.com/Azure/appcat-rulesets
github.com/Azure/appconfig-go
github.com/Azure/application-gateway-kubernetes-ingress
github.com/Azure/applicationhealth-extension-linux
github.com/Azure/appservice-actions
github.com/Azure/appservice-build
github.com/Azure/appservice-build-test1
github.com/Azure/appservice-landing-zone-accelerator
github.com/Azure/appservice-linux
github.com/Azure/appservice-settings
github.com/Azure/appservice-zipped-templates
github.com/Azure/ar-prod-patterns
github.com/Azure/arc-cicd-demo-gitops
github.com/Azure/arc-cicd-demo-src
github.com/Azure/arc-helm-demo
github.com/Azure/arc-k8s-demo
github.com/Azure/arc-vmm-arm-rest
github.com/Azure/arc_jumpstart_docs
github.com/Azure/arc_jumpstart_drops
github.com/Azure/arc_jumpstart_levelup
github.com/Azure/arcvmware-util
github.com/Azure/arm-deploy
github.com/Azure/arm-template-whatif
github.com/Azure/arm-templates-generator
github.com/Azure/arm-ttk
github.com/Azure/armstrong
github.com/Azure/aro-prod-patterns
github.com/Azure/asa-in-spark
github.com/Azure/asa-middle-gallery
github.com/Azure/aspnet-redis-providers
github.com/Azure/ato-toolkit
github.com/Azure/ausgovcaf-cloudsoe
github.com/Azure/automation-task-template
github.com/Azure/automl-codegen-preview
github.com/Azure/automl-testdataset-preview
github.com/Azure/autorest
github.com/Azure/autorest-clientruntime-for-java
github.com/Azure/autorest-clientruntime-for-swift
github.com/Azure/autorest-extension-base
github.com/Azure/autorest-extension-helloworld
github.com/Azure/autorest.aio
github.com/Azure/autorest.ansible
github.com/Azure/autorest.az
github.com/Azure/autorest.azure-functions
github.com/Azure/autorest.azure-functions-csharp
github.com/Azure/autorest.azure-functions-java
github.com/Azure/autorest.azure-functions-python
github.com/Azure/autorest.azure-functions-typescript
github.com/Azure/autorest.azureresourceschema
github.com/Azure/autorest.cli
github.com/Azure/autorest.clicommon
github.com/Azure/autorest.common
github.com/Azure/autorest.compare
github.com/Azure/autorest.csharp
github.com/Azure/autorest.go
github.com/Azure/autorest.interactive
github.com/Azure/autorest.java
github.com/Azure/autorest.megarepo
github.com/Azure/autorest.modeler
github.com/Azure/autorest.modelerfour
github.com/Azure/autorest.nodejs
github.com/Azure/autorest.php
github.com/Azure/autorest.powershell
github.com/Azure/autorest.python
github.com/Azure/autorest.remodeler
github.com/Azure/autorest.ruby
github.com/Azure/autorest.swift
github.com/Azure/autorest.terraform-provider
github.com/Azure/autorest.test
github.com/Azure/autorest.testserver
github.com/Azure/autorest.typescript
github.com/Azure/avd-latency-testing
github.com/Azure/avdaccelerator
github.com/Azure/avm-gh-app
github.com/Azure/avmtester
github.com/Azure/avocado
github.com/Azure/avshub
github.com/Azure/avslabs
github.com/Azure/awesome-azd
github.com/Azure/awesome-terraform
github.com/Azure/awps-swa-sample
github.com/Azure/awps-webapp-sample
github.com/Azure/az-csvmware-cli
github.com/Azure/az-hop
github.com/Azure/az-iot-bi
github.com/Azure/az-ps-module-versions
github.com/Azure/az-vmware-cli
github.com/Azure/azapi-lsp
github.com/Azure/azapi-vscode
github.com/Azure/azapi2azurerm
github.com/Azure/azch-captureorder
github.com/Azure/azch-frontend
github.com/Azure/azch-fulfillorder
github.com/Azure/azch-loadtest
github.com/Azure/azch-sblistener
github.com/Azure/azcv
github.com/Azure/azd
github.com/Azure/azface
github.com/Azure/azfilebackup
github.com/Azure/azhpc-diagnostics
github.com/Azure/azhpc-extensions
github.com/Azure/azhpc-images
github.com/Azure/azlustre
github.com/Azure/azml
github.com/Azure/aznetlabs
github.com/Azure/azqr
github.com/Azure/azspeech2txt
github.com/Azure/aztack
github.com/Azure/aztfexport
github.com/Azure/aztk
github.com/Azure/aztranslate
github.com/Azure/azure-acr-plugin
github.com/Azure/azure-ai-at-build
github.com/Azure/azure-ai-cli
github.com/Azure/azure-ai-personalized-offers
github.com/Azure/azure-ai-support
github.com/Azure/azure-amqp
github.com/Azure/azure-amqp-common-go
github.com/Azure/azure-api-management-devops-resource-kit
github.com/Azure/azure-api-style-guide
github.com/Azure/azure-apihub-sdk
github.com/Azure/azure-app-gateway-k8s-ingress
github.com/Azure/azure-app-service-authentication
github.com/Azure/azure-app-service-tunnel
github.com/Azure/azure-arc-for-vmware-scripts
github.com/Azure/azure-arc-kubernetes
github.com/Azure/azure-arc-kubernetes-examples
github.com/Azure/azure-arc-validation
github.com/Azure/azure-arch-enterprise-bi-and-reporting
github.com/Azure/azure-arm-validator
github.com/Azure/azure-automation-go-worker
github.com/Azure/azure-baremetalinfrastructure-cli-extension
github.com/Azure/azure-batch-apps-blender
github.com/Azure/azure-batch-apps-migration
github.com/Azure/azure-batch-apps-python
github.com/Azure/azure-batch-cli-extensions
github.com/Azure/azure-batch-maya
github.com/Azure/azure-batch-rendering
github.com/Azure/azure-batch-rscripts-manager
github.com/Azure/azure-batch-sdk-for-java
github.com/Azure/azure-batch-software-entitlement
github.com/Azure/azure-bigcompute-salt-slurm-formula
github.com/Azure/azure-blob-storage-file-upload-utility
github.com/Azure/azure-blueprints
github.com/Azure/azure-c-shared-utility
github.com/Azure/azure-capi-cli-extension
github.com/Azure/azure-cef-sdk
github.com/Azure/azure-cli
github.com/Azure/azure-cli-dev-tools
github.com/Azure/azure-cli-devtestlab-test
github.com/Azure/azure-cli-docker
github.com/Azure/azure-cli-extensions
github.com/Azure/azure-cli-samples
github.com/Azure/azure-cli-shell
github.com/Azure/azure-cnab-quickstarts
github.com/Azure/azure-code-signing-action
github.com/Azure/azure-compute-gallery
github.com/Azure/azure-container-networking
github.com/Azure/azure-cosi-driver
github.com/Azure/azure-cosmos-cassandra-extensions
github.com/Azure/azure-cosmos-db-emulator-docker
github.com/Azure/azure-cosmos-db-query-editor
github.com/Azure/azure-cosmos-dotnet-templates
github.com/Azure/azure-cosmos-dotnet-v2
github.com/Azure/azure-cosmos-dotnet-v3
github.com/Azure/azure-cosmos-js
github.com/Azure/azure-cosmos-notebooks-javakernel
github.com/Azure/azure-cosmos-python
github.com/Azure/azure-cosmos-table-dotnet
github.com/Azure/azure-cosmos-table-python
github.com/Azure/azure-cosmos-tla
github.com/Azure/azure-cosmosdb-ads-extension
github.com/Azure/azure-cosmosdb-bulkexecutor-dotnet-getting-started
github.com/Azure/azure-cosmosdb-bulkexecutor-java-getting-started
github.com/Azure/azure-cosmosdb-bulkingestion
github.com/Azure/azure-cosmosdb-java
github.com/Azure/azure-cosmosdb-js-server
github.com/Azure/azure-cosmosdb-node
github.com/Azure/azure-cosmosdb-spark
github.com/Azure/azure-custom-providers
github.com/Azure/azure-data-labs
github.com/Azure/azure-data-labs-modules
github.com/Azure/azure-data-lake-storage-gen2-psmodule
github.com/Azure/azure-data-lake-store-java
github.com/Azure/azure-data-lake-store-net
github.com/Azure/azure-data-lake-store-python
github.com/Azure/azure-data-pipelines
github.com/Azure/azure-databricks-client
github.com/Azure/azure-databricks-operator
github.com/Azure/azure-db-benchmarking
github.com/Azure/azure-dev
github.com/Azure/azure-devops-boards-importer-exporter
github.com/Azure/azure-devops-cli-extension
github.com/Azure/azure-devops-prpolicy-function
github.com/Azure/azure-devops-templates-iac
github.com/Azure/azure-devops-utils
github.com/Azure/azure-devtestlab
github.com/Azure/azure-diagnostics-tools
github.com/Azure/azure-digital-twins-graph-viewer
github.com/Azure/azure-diskinspect-service
github.com/Azure/azure-docker-extension
github.com/Azure/azure-docker4azureoms
github.com/Azure/azure-dockerdatacenter
github.com/Azure/azure-docs-bicep-samples
github.com/Azure/azure-docs-cli-getstarted
github.com/Azure/azure-docs-json-samples
github.com/Azure/azure-docs-powershell-aip
github.com/Azure/azure-docs-powershell-azuread
github.com/Azure/azure-docs-powershell-samples
github.com/Azure/azure-docs-sdk-dotnet
github.com/Azure/azure-docs-sdk-java
github.com/Azure/azure-documentdb-changefeedprocessor-dotnet
github.com/Azure/azure-documentdb-changefeedprocessor-java
github.com/Azure/azure-documentdb-datamigrationtool
github.com/Azure/azure-documentdb-hadoop
github.com/Azure/azure-documentdb-java
github.com/Azure/azure-documentdb-node-q
github.com/Azure/azure-event-grid
github.com/Azure/azure-event-hubs
github.com/Azure/azure-event-hubs-c
github.com/Azure/azure-event-hubs-dotnet
github.com/Azure/azure-event-hubs-emulator-installer
github.com/Azure/azure-event-hubs-for-kafka
github.com/Azure/azure-event-hubs-go
github.com/Azure/azure-event-hubs-java
github.com/Azure/azure-event-hubs-node
github.com/Azure/azure-event-hubs-python
github.com/Azure/azure-event-hubs-reactive
github.com/Azure/azure-event-hubs-spark
github.com/Azure/azure-extension-foundation
github.com/Azure/azure-extension-platform
github.com/Azure/azure-extensions-cli
github.com/Azure/azure-extensions-common
github.com/Azure/azure-firewall-egress-controller
github.com/Azure/azure-firewall-terraform-upgrade-sku-example
github.com/Azure/azure-functions-appinsights-extension
github.com/Azure/azure-functions-applicationinsights-extension
github.com/Azure/azure-functions-availability-monitoring-extension
github.com/Azure/azure-functions-core-tools
github.com/Azure/azure-functions-cosmosdb-extension
github.com/Azure/azure-functions-dapr-extension
github.com/Azure/azure-functions-datalake-extension
github.com/Azure/azure-functions-devops-build
github.com/Azure/azure-functions-docker
github.com/Azure/azure-functions-docker-python-sample
github.com/Azure/azure-functions-dotnet-extensions
github.com/Azure/azure-functions-dotnet-worker
github.com/Azure/azure-functions-dotnet-worker-preview
github.com/Azure/azure-functions-dropbox-extension
github.com/Azure/azure-functions-durable-extension
github.com/Azure/azure-functions-durable-js
github.com/Azure/azure-functions-durable-powershell
github.com/Azure/azure-functions-durable-python
github.com/Azure/azure-functions-eventgrid-extension
github.com/Azure/azure-functions-eventhubs-extension
github.com/Azure/azure-functions-extension-bundles
github.com/Azure/azure-functions-host
github.com/Azure/azure-functions-host-samples
github.com/Azure/azure-functions-integration-tests
github.com/Azure/azure-functions-iothub-extension
github.com/Azure/azure-functions-java-additions
github.com/Azure/azure-functions-java-library
github.com/Azure/azure-functions-java-worker
github.com/Azure/azure-functions-kafka-extension
github.com/Azure/azure-functions-kafka-extension-sample-confluent
github.com/Azure/azure-functions-language-worker-protobuf
github.com/Azure/azure-functions-microsoftgraph-extension
github.com/Azure/azure-functions-nodejs-e2e-tests
github.com/Azure/azure-functions-nodejs-library
github.com/Azure/azure-functions-nodejs-samples
github.com/Azure/azure-functions-nodejs-worker
github.com/Azure/azure-functions-ogf
github.com/Azure/azure-functions-on-container-apps
github.com/Azure/azure-functions-openai-extension
github.com/Azure/azure-functions-openapi-extension
github.com/Azure/azure-functions-overwatch
github.com/Azure/azure-functions-pack
github.com/Azure/azure-functions-performance-scenarios
github.com/Azure/azure-functions-performance-test
github.com/Azure/azure-functions-postgresql-extension
github.com/Azure/azure-functions-powershell-library
github.com/Azure/azure-functions-powershell-opentelemetry
github.com/Azure/azure-functions-powershell-worker
github.com/Azure/azure-functions-premium-plan
github.com/Azure/azure-functions-python-extensions
github.com/Azure/azure-functions-python-library
github.com/Azure/azure-functions-python-worker
github.com/Azure/azure-functions-rabbitmq-extension
github.com/Azure/azure-functions-redis-extension
github.com/Azure/azure-functions-servicebus-extension
github.com/Azure/azure-functions-signalrservice-extension
github.com/Azure/azure-functions-sql-extension
github.com/Azure/azure-functions-templates
github.com/Azure/azure-functions-tooling-feed
github.com/Azure/azure-functions-ux
github.com/Azure/azure-functions-vs-build-sdk
github.com/Azure/azure-functions-vscode-web
github.com/Azure/azure-fusion-controls
github.com/Azure/azure-hanaonazure-cli-extension
github.com/Azure/azure-hpc
github.com/Azure/azure-iac-workshop-content
github.com/Azure/azure-iiot-common
github.com/Azure/azure-iiot-opc-twin-module
github.com/Azure/azure-iiot-opc-twin-webui
github.com/Azure/azure-iiot-opc-ua
github.com/Azure/azure-iiot-opc-vault-service
github.com/Azure/azure-iiot-services
github.com/Azure/azure-iiot-services-api
github.com/Azure/azure-impact-reporting-connectors
github.com/Azure/azure-init
github.com/Azure/azure-insights-schemas
github.com/Azure/azure-internet-analyzer-java
github.com/Azure/azure-iot-arduino
github.com/Azure/azure-iot-arduino-protocol-http
github.com/Azure/azure-iot-arduino-protocol-mqtt
github.com/Azure/azure-iot-arduino-socket-esp32-wifi
github.com/Azure/azure-iot-arduino-utility
github.com/Azure/azure-iot-c-analysis
github.com/Azure/azure-iot-c-back-compat
github.com/Azure/azure-iot-cli-extension
github.com/Azure/azure-iot-connected-factory
github.com/Azure/azure-iot-connection-diagnostic-tool
github.com/Azure/azure-iot-device-ecosystem
github.com/Azure/azure-iot-device-ecosystem.zh-cn
github.com/Azure/azure-iot-device-simulation-dotnet-tests
github.com/Azure/azure-iot-dps-node
github.com/Azure/azure-iot-edge-c-module
github.com/Azure/azure-iot-edge-c-module-vs
github.com/Azure/azure-iot-experimental
github.com/Azure/azure-iot-explorer
github.com/Azure/azure-iot-hub-node
github.com/Azure/azure-iot-hub-nodered-nodes
github.com/Azure/azure-iot-hub-python
github.com/Azure/azure-iot-hub-vs-cs
github.com/Azure/azure-iot-hub-vs-cs-2017
github.com/Azure/azure-iot-library
github.com/Azure/azure-iot-middleware-freertos
github.com/Azure/azure-iot-operations
github.com/Azure/azure-iot-ops-cli-extension
github.com/Azure/azure-iot-pal-arduino
github.com/Azure/azure-iot-pal-esp32
github.com/Azure/azure-iot-pcs-device-simulation
github.com/Azure/azure-iot-pcs-remote-monitoring-dotnet
github.com/Azure/azure-iot-pcs-remote-monitoring-dotnet-tests
github.com/Azure/azure-iot-pcs-remote-monitoring-java
github.com/Azure/azure-iot-pcs-tools
github.com/Azure/azure-iot-predictive-maintenance
github.com/Azure/azure-iot-protocol-gateway
github.com/Azure/azure-iot-remote-monitoring
github.com/Azure/azure-iot-sdk-c
github.com/Azure/azure-iot-sdk-csharp
github.com/Azure/azure-iot-sdk-java
github.com/Azure/azure-iot-sdk-node
github.com/Azure/azure-iot-sdk-python
github.com/Azure/azure-iot-sdk-python-preview
github.com/Azure/azure-iot-sdks
github.com/Azure/azure-iot-service-sdk-java
github.com/Azure/azure-iot-workshops
github.com/Azure/azure-iotedge
github.com/Azure/azure-ipoib-ipam-cni
github.com/Azure/azure-javaee-iaas
github.com/Azure/azure-jdbc-msi-extension
github.com/Azure/azure-k8s-metrics-adapter
github.com/Azure/azure-key-vault-secret-as-a-service
github.com/Azure/azure-keyvault-cli-extension
github.com/Azure/azure-keyvault-java
github.com/Azure/azure-kubernetes-visualizer
github.com/Azure/azure-kusto-analytics-lib
github.com/Azure/azure-kusto-avro-conv
github.com/Azure/azure-kusto-bcdr-boilerplate
github.com/Azure/azure-kusto-demos
github.com/Azure/azure-kusto-docs-samples
github.com/Azure/azure-kusto-dotnet
github.com/Azure/azure-kusto-go
github.com/Azure/azure-kusto-graph-samples
github.com/Azure/azure-kusto-ignition
github.com/Azure/azure-kusto-java
github.com/Azure/azure-kusto-labs
github.com/Azure/azure-kusto-log4j
github.com/Azure/azure-kusto-microhack
github.com/Azure/azure-kusto-microhack1
github.com/Azure/azure-kusto-microhack2
github.com/Azure/azure-kusto-microhack3
github.com/Azure/azure-kusto-nlog-sink
github.com/Azure/azure-kusto-node
github.com/Azure/azure-kusto-orc-conv
github.com/Azure/azure-kusto-parquet-conv
github.com/Azure/azure-kusto-python
github.com/Azure/azure-kusto-rust
github.com/Azure/azure-kusto-samples-dotnet
github.com/Azure/azure-kusto-samples-js
github.com/Azure/azure-kusto-sdmt
github.com/Azure/azure-kusto-spark
github.com/Azure/azure-kusto-splunk
github.com/Azure/azure-kusto-timedingest
github.com/Azure/azure-kusto-trender
github.com/Azure/azure-kusto-utils
github.com/Azure/azure-kusto-vnet-migration
github.com/Azure/azure-kusto-webexplorer-embedding
github.com/Azure/azure-libraries-for-java
github.com/Azure/azure-libraries-for-net
github.com/Azure/azure-libraries-for-swift
github.com/Azure/azure-linux-extensions
github.com/Azure/azure-managed-disks-performance-tiers
github.com/Azure/azure-managed-grafana
github.com/Azure/azure-managedapp-samples
github.com/Azure/azure-maps-creator-onboarding-tool
github.com/Azure/azure-maps-ios-sdk-distribution
github.com/Azure/azure-mariadb
github.com/Azure/azure-marketplace-management-extras
github.com/Azure/azure-media-migration
github.com/Azure/azure-media-services-samples
github.com/Azure/azure-messaging-streaming
github.com/Azure/azure-microprofile
github.com/Azure/azure-migrate
github.com/Azure/azure-migrate-discovery-extension-events
github.com/Azure/azure-migrate-export
github.com/Azure/azure-ml-problem-sets
github.com/Azure/azure-mobile-apps
github.com/Azure/azure-mobile-engagement-app-android
github.com/Azure/azure-mobile-engagement-app-ios
github.com/Azure/azure-mobile-engagement-app-windows
github.com/Azure/azure-mobile-engagement-capptain-cordova
github.com/Azure/azure-mobile-engagement-cordova
github.com/Azure/azure-mobile-engagement-samples
github.com/Azure/azure-mobile-engagement-unity
github.com/Azure/azure-mobile-services
github.com/Azure/azure-mobile-services-cordova
github.com/Azure/azure-mobile-services-node
github.com/Azure/azure-mobile-services-quickstarts
github.com/Azure/azure-mobile-services-recipes
github.com/Azure/azure-mobile-services-test
github.com/Azure/azure-monitor-baseline-alerts
github.com/Azure/azure-multiapi-storage-python
github.com/Azure/azure-mysql
github.com/Azure/azure-netapp-files
github.com/Azure/azure-node-essentials
github.com/Azure/azure-notificationhubs
github.com/Azure/azure-notificationhubs-android
github.com/Azure/azure-notificationhubs-dotnet
github.com/Azure/azure-notificationhubs-ios
github.com/Azure/azure-notificationhubs-java-backend
github.com/Azure/azure-notificationhubs-samples
github.com/Azure/azure-notificationhubs-xamarin
github.com/Azure/azure-nvme-utils
github.com/Azure/azure-oam-solution
github.com/Azure/azure-object-anchors
github.com/Azure/azure-ocp-samples
github.com/Azure/azure-ocr-react
github.com/Azure/azure-odata-sql-js
github.com/Azure/azure-openai-benchmark
github.com/Azure/azure-openai-landing-zone
github.com/Azure/azure-openai-samples
github.com/Azure/azure-openai-workshop
github.com/Azure/azure-openapi-arm-validator
github.com/Azure/azure-openapi-validator
github.com/Azure/azure-operation-script
github.com/Azure/azure-orbital-integration
github.com/Azure/azure-osconfig
github.com/Azure/azure-pipeline-go
github.com/Azure/azure-pixel-tracker
github.com/Azure/azure-pixel-tracker-arm
github.com/Azure/azure-pixel-tracker-java
github.com/Azure/azure-policy
github.com/Azure/azure-postgresql
github.com/Azure/azure-powershell
github.com/Azure/azure-powershell-common
github.com/Azure/azure-powershell-migration
github.com/Azure/azure-provider-external-dns-e2e
github.com/Azure/azure-python-devtools
github.com/Azure/azure-python-siteextensions
github.com/Azure/azure-qube
github.com/Azure/azure-query-js
github.com/Azure/azure-quickstart-templates
github.com/Azure/azure-relay
github.com/Azure/azure-relay-aspnetserver
github.com/Azure/azure-relay-bridge
github.com/Azure/azure-relay-dotnet
github.com/Azure/azure-relay-java
github.com/Azure/azure-relay-node
github.com/Azure/azure-remote-rendering
github.com/Azure/azure-remote-rendering-asset-tool
github.com/Azure/azure-render-hub
github.com/Azure/azure-resource-login-action
github.com/Azure/azure-resource-manager-schemas
github.com/Azure/azure-resource-provider-sdk
github.com/Azure/azure-rest-api-specs
github.com/Azure/azure-rest-api-specs-examples
github.com/Azure/azure-rest-api-specs-tests
github.com/Azure/azure-ruby-asm-core
github.com/Azure/azure-saas
github.com/Azure/azure-schema-registry-for-kafka
github.com/Azure/azure-schema-registry-for-spark
github.com/Azure/azure-sdk
github.com/Azure/azure-sdk-actions
github.com/Azure/azure-sdk-assets
github.com/Azure/azure-sdk-for-android
github.com/Azure/azure-sdk-for-c
github.com/Azure/azure-sdk-for-c-arduino
github.com/Azure/azure-sdk-for-cpp
github.com/Azure/azure-sdk-for-dotnet-samples
github.com/Azure/azure-sdk-for-go
github.com/Azure/azure-sdk-for-go-extensions
github.com/Azure/azure-sdk-for-ios
github.com/Azure/azure-sdk-for-java
github.com/Azure/azure-sdk-for-java-assets
github.com/Azure/azure-sdk-for-js
github.com/Azure/azure-sdk-for-js-assets
github.com/Azure/azure-sdk-for-media-services
github.com/Azure/azure-sdk-for-media-services-extensions
github.com/Azure/azure-sdk-for-net
github.com/Azure/azure-sdk-for-net-assets
github.com/Azure/azure-sdk-for-net-samples
github.com/Azure/azure-sdk-for-node
github.com/Azure/azure-sdk-for-php
github.com/Azure/azure-sdk-for-php-samples
github.com/Azure/azure-sdk-for-python
github.com/Azure/azure-sdk-for-python-assets
github.com/Azure/azure-sdk-for-ruby
github.com/Azure/azure-sdk-for-rust
github.com/Azure/azure-sdk-for-sap-odata
github.com/Azure/azure-sdk-korean
github.com/Azure/azure-sdk-tools
github.com/Azure/azure-sdk-tools-samples
github.com/Azure/azure-sdk-vcpkg-betas
github.com/Azure/azure-search-vector-samples
github.com/Azure/azure-service-bus
github.com/Azure/azure-service-bus-dotnet
github.com/Azure/azure-service-bus-dotnet-plugins
github.com/Azure/azure-service-bus-go
github.com/Azure/azure-service-bus-java
github.com/Azure/azure-service-bus-node
github.com/Azure/azure-service-operator
github.com/Azure/azure-service-operator-porter
github.com/Azure/azure-servicebus-jms
github.com/Azure/azure-servicebus-jms-samples
github.com/Azure/azure-signalr
github.com/Azure/azure-signalr-bench
github.com/Azure/azure-signalr-test
github.com/Azure/azure-spatial-anchors-samples
github.com/Azure/azure-sphere-gallery
github.com/Azure/azure-sphere-hardware-designs
github.com/Azure/azure-sphere-samples
github.com/Azure/azure-sphere-tools
github.com/Azure/azure-sphere-wpa-supplicant
github.com/Azure/azure-spring-apps-landing-zone-accelerator
github.com/Azure/azure-spring-initializr
github.com/Azure/azure-spring-rewrite
github.com/Azure/azure-spring-suitability-rules
github.com/Azure/azure-sql-database-samples
github.com/Azure/azure-sql-feedback-hub
github.com/Azure/azure-sqldb-spark
github.com/Azure/azure-stack-hub-aks-acr
github.com/Azure/azure-stack-hub-powershell
github.com/Azure/azure-storage-android
github.com/Azure/azure-storage-av-automation
github.com/Azure/azure-storage-azcopy
github.com/Azure/azure-storage-blob-go
github.com/Azure/azure-storage-blob-php
github.com/Azure/azure-storage-common-php
github.com/Azure/azure-storage-cpp
github.com/Azure/azure-storage-cpplite
github.com/Azure/azure-storage-debian-mirror
github.com/Azure/azure-storage-file-go
github.com/Azure/azure-storage-file-php
github.com/Azure/azure-storage-fuse
github.com/Azure/azure-storage-gst-plugin
github.com/Azure/azure-storage-ios
github.com/Azure/azure-storage-java
github.com/Azure/azure-storage-js
github.com/Azure/azure-storage-mirror
github.com/Azure/azure-storage-net
github.com/Azure/azure-storage-net-data-movement
github.com/Azure/azure-storage-node
github.com/Azure/azure-storage-php
github.com/Azure/azure-storage-python
github.com/Azure/azure-storage-queue-go
github.com/Azure/azure-storage-queue-php
github.com/Azure/azure-storage-ruby
github.com/Azure/azure-storage-table-php
github.com/Azure/azure-stream-analytics
github.com/Azure/azure-subscription-level-arm-deployment
github.com/Azure/azure-support-scripts
github.com/Azure/azure-synapse-analytics-end2end
github.com/Azure/azure-table-archiver
github.com/Azure/azure-testing-repo-access
github.com/Azure/azure-tokens
github.com/Azure/azure-triggers-acr
github.com/Azure/azure-uamqp-c
github.com/Azure/azure-uamqp-python
github.com/Azure/azure-uhttp-c
github.com/Azure/azure-ulib-c
github.com/Azure/azure-umqtt-c
github.com/Azure/azure-utpm-c
github.com/Azure/azure-visual-intelligence
github.com/Azure/azure-vm-scripts
github.com/Azure/azure-vm-utils
github.com/Azure/azure-vmware-solution
github.com/Azure/azure-webjobs-quickstart
github.com/Azure/azure-webjobs-sdk
github.com/Azure/azure-webjobs-sdk-dashboard-tests
github.com/Azure/azure-webjobs-sdk-extensions
github.com/Azure/azure-webjobs-sdk-samples
github.com/Azure/azure-webpubsub
github.com/Azure/azure-webpubsub-demo-template
github.com/Azure/azure-websites-java-remote-debugging
github.com/Azure/azure-websites-security
github.com/Azure/azure-workload-identity
github.com/Azure/azure-xplat-arm-tooling
github.com/Azure/azure-xplat-cli
github.com/Azure/azure.github.io
github.com/Azure/azure_modules
github.com/Azure/azure_preview_modules
github.com/Azure/azureadm
github.com/Azure/azurearc-dev
github.com/Azure/azurecosmosdb-vercel-starter
github.com/Azure/azuredatabrickswebinars
github.com/Azure/azuredocker-ddcee
github.com/Azure/azurefile-dockervolumedriver
github.com/Azure/azurehpc
github.com/Azure/azurehpc-health-checks
github.com/Azure/azureml-assets
github.com/Azure/azureml-cheatsheets
github.com/Azure/azureml-deploy-with-rest-and-arm
github.com/Azure/azureml-examples
github.com/Azure/azureml-managed-network-isolation
github.com/Azure/azureml-online-endpoint-profiler-preview
github.com/Azure/azureml-oss-models
github.com/Azure/azureml-sdk-for-r
github.com/Azure/azureml-tap-notebooks
github.com/Azure/azureml-template
github.com/Azure/azureservicefabricchina
github.com/Azure/azurestack-powershell
github.com/Azure/azurestack-solutionvalidation
github.com/Azure/azvmimagebuilder
github.com/Azure/bacc
github.com/Azure/bacc-connectivity
github.com/Azure/batch-extension-templates
github.com/Azure/batch-insights
github.com/Azure/batch-jenkins
github.com/Azure/batch-matlab-mdcs-scheduler
github.com/Azure/batch-scoring-for-dl-models
github.com/Azure/batch-shipyard
github.com/Azure/batchai_retinanet_horovod_coco
github.com/Azure/bellhop
github.com/Azure/benchpress
github.com/Azure/bicep
github.com/Azure/bicep-build-action
github.com/Azure/bicep-extensibility
github.com/Azure/bicep-lz-vending
github.com/Azure/bicep-registry-modules
github.com/Azure/bicep-registry-providers
github.com/Azure/bicep-reps
github.com/Azure/bicep-shared-tools
github.com/Azure/bicep-types
github.com/Azure/bicep-types-az
github.com/Azure/bicep-types-k8s
github.com/Azure/blackbelt-aks-hackfest
github.com/Azure/blobindexreact
github.com/Azure/blobnfs-troubleshoot
github.com/Azure/blobporter
github.com/Azure/blobxfer
github.com/Azure/blockchain-supply-chain-solution
github.com/Azure/blog-mrs-spark-samples
github.com/Azure/boilerplate-azurefunctions
github.com/Azure/bot-graph-dialog
github.com/Azure/bot-trees
github.com/Azure/botbuilder-instrumentation
github.com/Azure/botbuilder-instrumentation-cs
github.com/Azure/brigade-charts
github.com/Azure/buffalo-azure
github.com/Azure/build-vm-image
github.com/Azure/build2018-container-demo
github.com/Azure/business-process-automation
github.com/Azure/c-build-tools
github.com/Azure/c-logging
github.com/Azure/c-pal
github.com/Azure/c-testrunnerswitcher
github.com/Azure/c-util
github.com/Azure/c2pa-js
github.com/Azure/c2pa-rs
github.com/Azure/cadl-ranch
github.com/Azure/caf-terraform-landingzones
github.com/Azure/caf-terraform-landingzones-accelerator
github.com/Azure/caf-terraform-landingzones-platform-starter
github.com/Azure/capacityreservationsharing
github.com/Azure/carbon-aware-keda-operator
github.com/Azure/carnegie-mop
github.com/Azure/carprice
github.com/Azure/carprice-aml-powerapp
github.com/Azure/ccf-identity
github.com/Azure/ccg-azure-data-talk
github.com/Azure/ccme
github.com/Azure/cdn-security-demo
github.com/Azure/certlc
github.com/Azure/cet-aks-engine-templates
github.com/Azure/chgupta-optimizemyoncall
github.com/Azure/classic-iaas-resourcemanager-migration
github.com/Azure/clds
github.com/Azure/cli
github.com/Azure/cloud-debug-tools
github.com/Azure/cloud-for-sovereignty-policy-portfolio
github.com/Azure/cloud-for-sovereignty-quickstarts
github.com/Azure/cloud-network-evaluator
github.com/Azure/cloud-rolesandops
github.com/Azure/cloud-scale-data-for-devs-guide
github.com/Azure/cmf-postmigration
github.com/Azure/cmno-observability
github.com/Azure/coco-framework
github.com/Azure/codegenapp
github.com/Azure/cognitive-services
github.com/Azure/cognitiveservices-aci
github.com/Azure/com-wrapper
github.com/Azure/commercial-marketplace-data-offer-accelerator
github.com/Azure/communication-monitoring
github.com/Azure/communication-services-pstn-calling
github.com/Azure/communication-ui-library
github.com/Azure/communication-ui-library-android
github.com/Azure/communication-ui-library-ios
github.com/Azure/computer-vision-nextjs-webapp
github.com/Azure/confidential-computing-cvm
github.com/Azure/confidential-computing-cvm-guest-attestation
github.com/Azure/config-driven-data-pipeline
github.com/Azure/connected-vehicle-samples
github.com/Azure/connectthedots
github.com/Azure/container-actions
github.com/Azure/container-apps-deploy-action
github.com/Azure/container-apps-deploy-pipelines-task
github.com/Azure/container-scan
github.com/Azure/container-service-for-azure-china
github.com/Azure/container-upstream
github.com/Azure/cookiecutter-azure-iot-edge-module
github.com/Azure/copilot-jsk
github.com/Azure/cortana-intelligence-churn-prediction-solution
github.com/Azure/cortana-intelligence-customer360
github.com/Azure/cortana-intelligence-data-virtualization-techniques-using-sql-server-2016-and-hdinsight
github.com/Azure/cortana-intelligence-energy-demand-forecasting
github.com/Azure/cortana-intelligence-energy-supply-optimization
github.com/Azure/cortana-intelligence-inventory-optimization
github.com/Azure/cortana-intelligence-personalization-data-science-playbook
github.com/Azure/cortana-intelligence-personalized-offers-retail
github.com/Azure/cortana-intelligence-population-health-management
github.com/Azure/cortana-intelligence-predictive-maintenance-aerospace
github.com/Azure/cortana-intelligence-price-analytics
github.com/Azure/cortana-intelligence-price-optimization
github.com/Azure/cortana-intelligence-product-detection-from-images
github.com/Azure/cortana-intelligence-quality-assurance
github.com/Azure/cortana-intelligence-shipping-and-distribution-forecasting
github.com/Azure/cortana-intelligence-tank-level-forecast
github.com/Azure/cosmos
github.com/Azure/cosmos-explorer
github.com/Azure/cosmos-js-sdk-debug-tools
github.com/Azure/cosmos-sign
github.com/Azure/cosmos-sql-language-service
github.com/Azure/cosmos-tls-scanner
github.com/Azure/cosmosdb-emulator-recipes
github.com/Azure/counterfit
github.com/Azure/csu-demos
github.com/Azure/ctest
github.com/Azure/custmod
github.com/Azure/custom-ai-on-azure
github.com/Azure/custom-script-extension-linux
github.com/Azure/custom-speech-dubbing
github.com/Azure/custom-speech-stt
github.com/Azure/customResourceProviders
github.com/Azure/cvm-attestation-tools
github.com/Azure/cxp-isv
github.com/Azure/cyclecloud-beegfs
github.com/Azure/cyclecloud-blender
github.com/Azure/cyclecloud-conda
github.com/Azure/cyclecloud-container
github.com/Azure/cyclecloud-creds-rotation
github.com/Azure/cyclecloud-data-science-vm
github.com/Azure/cyclecloud-docker
github.com/Azure/cyclecloud-galaxy
github.com/Azure/cyclecloud-gluster
github.com/Azure/cyclecloud-gridengine
github.com/Azure/cyclecloud-hands-on-labs
github.com/Azure/cyclecloud-hpcpack
github.com/Azure/cyclecloud-htcondor
github.com/Azure/cyclecloud-kafka
github.com/Azure/cyclecloud-lammps
github.com/Azure/cyclecloud-lsf
github.com/Azure/cyclecloud-marketplace-image
github.com/Azure/cyclecloud-mrbayes
github.com/Azure/cyclecloud-nfs
github.com/Azure/cyclecloud-nodehealth
github.com/Azure/cyclecloud-nodeqa
github.com/Azure/cyclecloud-nvidia-gpu-cloud
github.com/Azure/cyclecloud-openfoam
github.com/Azure/cyclecloud-pbspro
github.com/Azure/cyclecloud-redis
github.com/Azure/cyclecloud-scalelib
github.com/Azure/cyclecloud-singularity
github.com/Azure/cyclecloud-slurm
github.com/Azure/cyclecloud-slurm-workspace
github.com/Azure/cyclecloud-symphony
github.com/Azure/cyclecloud-tractor
github.com/Azure/cyclecloud-ubercloud
github.com/Azure/cyclecloud-vFXT
github.com/Azure/cyclecloud-zookeeper
github.com/Azure/dalec
github.com/Azure/dapr-gbb-workshop
github.com/Azure/dapr-workflows-aks-sample
github.com/Azure/data-api-builder
github.com/Azure/data-factory-deploy-action
github.com/Azure/data-factory-export-action
github.com/Azure/data-factory-validate-action
github.com/Azure/data-lake-adlstool
github.com/Azure/data-landing-zone
github.com/Azure/data-management-zone
github.com/Azure/data-model-drift
github.com/Azure/data-product-analytics
github.com/Azure/data-product-batch
github.com/Azure/data-product-streaming
github.com/Azure/databox-adls-loader
github.com/Azure/databricks-sdk-golang
github.com/Azure/dataops
github.com/Azure/dataverse-to-sql
github.com/Azure/db-dsc-jobs
github.com/Azure/db2-on-azure
github.com/Azure/dcos-engine
github.com/Azure/decisionAI-plugin
github.com/Azure/dedicated-hosts-manager
github.com/Azure/deploy-to-aks
github.com/Azure/deploy-to-azure-cli-extension
github.com/Azure/deployment-environments
github.com/Azure/deployment-stacks
github.com/Azure/deployment-what-if-action
github.com/Azure/dev-box-images
github.com/Azure/dev-community
github.com/Azure/dev-spaces
github.com/Azure/develop-streaming-analytics
github.com/Azure/device-discovery-cli
github.com/Azure/device-simulation-dotnet
github.com/Azure/devops-governance
github.com/Azure/dfs-namespace-cluster-examples
github.com/Azure/diagnostics-correlation
github.com/Azure/diagnostics-eventflow
github.com/Azure/discover-java-apps
github.com/Azure/doAzureParallel
github.com/Azure/docker-login
github.com/Azure/dotnet-template-azure-iot-edge-function
github.com/Azure/dotnet-template-azure-iot-edge-module
github.com/Azure/dotnet-template-azure-iot-edge-module-visual-studio
github.com/Azure/dps-certgen
github.com/Azure/dps-keygen
github.com/Azure/draft
github.com/Azure/draft-classic
github.com/Azure/durabletask
github.com/Azure/elastic-db-tools
github.com/Azure/elenchus
github.com/Azure/embedded-wireless-framework
github.com/Azure/employee-retention-databricks-kubernetes-poc
github.com/Azure/eno
github.com/Azure/enterprise-azure-policy-as-code
github.com/Azure/enterprise-azureai
github.com/Azure/envconf
github.com/Azure/etlorchestration-cortana-intelligence-preconfigured-solution
github.com/Azure/eu-digital-covid-certificates-reference-architecture
github.com/Azure/event-grid-iot-edge
github.com/Azure/eventgrid-emulator
github.com/Azure/external-metrics-ingestion-agent
github.com/Azure/fable-sdk-samples
github.com/Azure/fabric-react-jsonschema-form
github.com/Azure/fast_retraining
github.com/Azure/fasttrack-isv
github.com/Azure/feast-azure
github.com/Azure/federated-search-preview
github.com/Azure/fedramp-iaas-webapp
github.com/Azure/fetch-event-source
github.com/Azure/finance-analytics
github.com/Azure/flamenco-manager-azure
github.com/Azure/fleet
github.com/Azure/fleet-networking
github.com/Azure/flink-connector-kusto
github.com/Azure/fluent-plugin-azuremonitorlog
github.com/Azure/fluent-plugin-azuremonitormetrics
github.com/Azure/fluent-plugin-colomanager-heartbeat
github.com/Azure/fluent-plugin-hanarp-message
github.com/Azure/fluent-plugin-imds
github.com/Azure/fluent-plugin-mdm
github.com/Azure/fluent-plugin-process-redfishalert
github.com/Azure/fluent-plugin-process-snmptrap
github.com/Azure/fluent-plugin-process-ucs-syslog
github.com/Azure/fluent-plugin-servicebus-queue
github.com/Azure/fluent-plugin-snmptrapalert
github.com/Azure/fluentd-plugin-mdsd
github.com/Azure/fluxv2-grafana-dashboards
github.com/Azure/forensics
github.com/Azure/form-recognizer-accelerator
github.com/Azure/fta-FTAIntro
github.com/Azure/fta-ModernServiceManagement
github.com/Azure/fta-aas
github.com/Azure/fta-ai-learning
github.com/Azure/fta-aks-operations
github.com/Azure/fta-appmigration
github.com/Azure/fta-appmodernization
github.com/Azure/fta-architecturalreview
github.com/Azure/fta-architecture
github.com/Azure/fta-azure-machine-learning
github.com/Azure/fta-azurebootcamp
github.com/Azure/fta-azurefoundations
github.com/Azure/fta-azurepurview
github.com/Azure/fta-azuresecurity101
github.com/Azure/fta-azuresecuritycenter
github.com/Azure/fta-azuresentinel
github.com/Azure/fta-azurevirtualdesktop
github.com/Azure/fta-cloudarchitecture
github.com/Azure/fta-cloudscaleanalytics
github.com/Azure/fta-cost-management
github.com/Azure/fta-customerfacingapps
github.com/Azure/fta-customerportal-pathwayscontent
github.com/Azure/fta-devopsiac
github.com/Azure/fta-governance
github.com/Azure/fta-identity
github.com/Azure/fta-internalbusinessapps
github.com/Azure/fta-isv
github.com/Azure/fta-japan
github.com/Azure/fta-kusto100knocks
github.com/Azure/fta-landingzone
github.com/Azure/fta-liftandshift-dcmigration
github.com/Azure/fta-live-asm-to-arm
github.com/Azure/fta-live-iac
github.com/Azure/fta-manageddisks
github.com/Azure/fta-marketplace-tech
github.com/Azure/fta-monitoring
github.com/Azure/fta-networking
github.com/Azure/fta-postmigrationtasks
github.com/Azure/fta-synapse-serverless-dacpac-builder
github.com/Azure/fta-windowsvirtualdesktop
github.com/Azure/fulmar
github.com/Azure/functions-action
github.com/Azure/functions-container-action
github.com/Azure/functionschallenge
github.com/Azure/gbc-containers
github.com/Azure/gen-cv
github.com/Azure/generator-az-iot-gw-module
github.com/Azure/generator-az-terra-module
github.com/Azure/generator-azure-iot-edge-module
github.com/Azure/generator-azure-node
github.com/Azure/generator-jhipster-azure-spring-apps
github.com/Azure/get-adb-access-token
github.com/Azure/get-keyvault-secrets
github.com/Azure/get-proxy-settings
github.com/Azure/git-ops-connector
github.com/Azure/git-rest-api
github.com/Azure/git2grid
github.com/Azure/github-actions
github.com/Azure/github-nginx-cache
github.com/Azure/gitops-connector
github.com/Azure/gitops-flux2-kustomize-helm-mt
github.com/Azure/go-ansiterm
github.com/Azure/go-armbalancer
github.com/Azure/go-asyncjob
github.com/Azure/go-asynctask
github.com/Azure/go-autorest
github.com/Azure/go-ntlmssp
github.com/Azure/go-pkcs12
github.com/Azure/go-shuttle
github.com/Azure/go-tls-lint
github.com/Azure/go-workflow
github.com/Azure/gocover
github.com/Azure/golden
github.com/Azure/golua
github.com/Azure/gpt-rag-bot
github.com/Azure/gpt-rag-frontend
github.com/Azure/gpt-rag-ingestion
github.com/Azure/gpt-rag-int-sql
github.com/Azure/gpt-rag-orchestrator
github.com/Azure/gpu-provisioner
github.com/Azure/grept
github.com/Azure/grpc-go-redact
github.com/Azure/guest-agent-test-extension
github.com/Azure/gulp-common
github.com/Azure/ha-nva-fo
github.com/Azure/hana-large-instances-self-service-scripts
github.com/Azure/hardened-webapp
github.com/Azure/hbase-utils
github.com/Azure/hciarcasia
github.com/Azure/hdinsight-mslearn
github.com/Azure/hdinsight-phoenix-sharp
github.com/Azure/hdinsight-script-actions
github.com/Azure/helm-charts
github.com/Azure/helm-elasticstack
github.com/Azure/helm-vsts-agent
github.com/Azure/helmrelease-workflow-executor
github.com/Azure/homebrew-aks-engine
github.com/Azure/homebrew-azd
github.com/Azure/homebrew-azure-workload-identity
github.com/Azure/homebrew-bicep
github.com/Azure/homebrew-draft
github.com/Azure/homebrew-functions
github.com/Azure/homebrew-kubelogin
github.com/Azure/hpc-analytics
github.com/Azure/hpc-cache
github.com/Azure/hpcadvisor
github.com/Azure/hpcpack
github.com/Azure/hpcpack-acm
github.com/Azure/hpcpack-acm-api-dotnet
github.com/Azure/hpcpack-acm-api-ps
github.com/Azure/hpcpack-acm-api-python
github.com/Azure/hpcpack-acm-cli
github.com/Azure/hpcpack-acm-portal
github.com/Azure/hpcpack-acm-ps
github.com/Azure/hpcpack-high-availability
github.com/Azure/hpcpack-linux-agent
github.com/Azure/hpcpack-mesos
github.com/Azure/hpcpack-rest-api-angular-client
github.com/Azure/hpcpack-rest-api-spec
github.com/Azure/hpcpack-template
github.com/Azure/hpcpack-template-2012r2
github.com/Azure/hpcpack-template-2016
github.com/Azure/hpcpack-web-portal
github.com/Azure/httpx
github.com/Azure/hyperkv
github.com/Azure/hyperlocal-windows
github.com/Azure/ibex-dashboard
github.com/Azure/identity-management-samples
github.com/Azure/ignite-aks-bestpractices
github.com/Azure/ignite-day2-aks
github.com/Azure/image-rootfs-scanner
github.com/Azure/impact-reporting-samples
github.com/Azure/intelligent-app-workshop
github.com/Azure/intro-to-intelligent-apps
github.com/Azure/iot
github.com/Azure/iot-central
github.com/Azure/iot-central-CICD-sample
github.com/Azure/iot-central-aad-app
github.com/Azure/iot-central-aad-setup
github.com/Azure/iot-central-batch-telemetry-with-python
github.com/Azure/iot-central-bidirectional-device-bridge
github.com/Azure/iot-central-companion-experiences-learning
github.com/Azure/iot-central-compute
github.com/Azure/iot-central-contoso-drive-simulator
github.com/Azure/iot-central-contoso-drive-support
github.com/Azure/iot-central-file-upload-device
github.com/Azure/iot-central-firmware
github.com/Azure/iot-central-high-availability-clients
github.com/Azure/iot-central-integration-guide
github.com/Azure/iot-central-micropython-client
github.com/Azure/iot-central-paad
github.com/Azure/iot-central-python-client
github.com/Azure/iot-central-twinviewer
github.com/Azure/iot-central-web-mqtt-device
github.com/Azure/iot-edge-config
github.com/Azure/iot-edge-modbus
github.com/Azure/iot-edge-object-model
github.com/Azure/iot-edge-opc-proxy
github.com/Azure/iot-edge-opc-proxy-api-csharp
github.com/Azure/iot-edge-opc-publisher-v1
github.com/Azure/iot-edge-sqlite
github.com/Azure/iot-edge-testing-utility
github.com/Azure/iot-edge-v1
github.com/Azure/iot-edge-virtual-kubelet-provider
github.com/Azure/iot-edge-visual-studio-templates
github.com/Azure/iot-hub-device-update
github.com/Azure/iot-hub-device-update-delta
github.com/Azure/iot-hub-device-update-yocto
github.com/Azure/iot-identity-service
github.com/Azure/iot-plug-and-play-bridge
github.com/Azure/iot-plugandplay-models
github.com/Azure/iot-plugandplay-models-test
github.com/Azure/iot-plugandplay-models-tools
github.com/Azure/iot-sdk-longhaul
github.com/Azure/iot-sdks-e2e-fx
github.com/Azure/iot-security-module-core
github.com/Azure/iot-ux-baseline
github.com/Azure/iot-ux-fluent-controls
github.com/Azure/iot-ux-fluent-css
github.com/Azure/iot-workshop-asset-tracking
github.com/Azure/iot-workshop-quality-assurance
github.com/Azure/iot_central_python_sample
github.com/Azure/iotc-android-sample
github.com/Azure/iotc-device-bridge
github.com/Azure/iotc-explorer
github.com/Azure/iotc-migrator
github.com/Azure/iotedge
github.com/Azure/iotedge-eflow
github.com/Azure/iotedge-lorawan-starterkit
github.com/Azure/iotedge-vm-deploy
github.com/Azure/iotedgedev
github.com/Azure/iotedgehubdev
github.com/Azure/iothub-diagnostics
github.com/Azure/iothub-explorer
github.com/Azure/ip-masq-agent-v2
github.com/Azure/ip2azure
github.com/Azure/ipam
github.com/Azure/ipynb-renderer
github.com/Azure/ipython-cosmos-extension
github.com/Azure/isv-success-program-resources
github.com/Azure/itanomalyinsights-cortana-intelligence-preconfigured-solution
github.com/Azure/java-aks-aca-dapr-workshop
github.com/Azure/java-buildpack-e2e-test
github.com/Azure/jenkins
github.com/Azure/jp-akssecurity
github.com/Azure/jp-appservicesecurity
github.com/Azure/jp-iaassecurity
github.com/Azure/jp-sqlsecurity
github.com/Azure/jp-techdocs
github.com/Azure/jpazpaas
github.com/Azure/jwcc-curated-portal
github.com/Azure/k6ctl
github.com/Azure/k8s-actions
github.com/Azure/k8s-artifact-substitute
github.com/Azure/k8s-bake
github.com/Azure/k8s-best-practices
github.com/Azure/k8s-create-secret
github.com/Azure/k8s-deploy
github.com/Azure/k8s-infra
github.com/Azure/k8s-lint
github.com/Azure/k8s-set-context
github.com/Azure/kafka-connect-cosmosdb-graph
github.com/Azure/kafka-private-preview
github.com/Azure/kafka-sink-azure-kusto
github.com/Azure/kaito
github.com/Azure/karpenter-provider-azure
github.com/Azure/kdebug
github.com/Azure/keptn-workflow-executor
github.com/Azure/keyvaultcertdownloader
github.com/Azure/knarly
github.com/Azure/kube-advisor
github.com/Azure/kube-egress-gateway
github.com/Azure/kubectl-aks
github.com/Azure/kubeflow-aks
github.com/Azure/kubeflow-labs
github.com/Azure/kubelogin
github.com/Azure/kubernetes-carbon-intensity-exporter
github.com/Azure/kubernetes-hackfest
github.com/Azure/kubernetes-keyvault-flexvol
github.com/Azure/kubernetes-kms
github.com/Azure/kubernetes-lab-files
github.com/Azure/kubernetes-volume-drivers
github.com/Azure/kusto-adx-cse
github.com/Azure/kusto-copy
github.com/Azure/kusto-ingest
github.com/Azure/language-model-pretrain-korean
github.com/Azure/linux-image-validations
github.com/Azure/linux-provisioning
github.com/Azure/llmops-gha-demo
github.com/Azure/load-testing
github.com/Azure/logger-js
github.com/Azure/logicapps
github.com/Azure/logicapps-connector-extensions
github.com/Azure/logicapps-docker
github.com/Azure/logicapps-update-docs
github.com/Azure/login
github.com/Azure/logstash-output-kusto
github.com/Azure/lstms_for_predictive_maintenance
github.com/Azure/lza-oracle
github.com/Azure/machine-learning-at-scale
github.com/Azure/machine-learning-best-practices
github.com/Azure/machinelearning-model-optimizer-preview
github.com/Azure/macro-utils-c
github.com/Azure/magic-module-specs
github.com/Azure/manage-azure-policy
github.com/Azure/maven-bundler
github.com/Azure/maximo
github.com/Azure/mec-app-solution-accelerator
github.com/Azure/medical-imaging
github.com/Azure/meta-azure-device-update
github.com/Azure/meta-azure-service-broker
github.com/Azure/meta-iot-hub-device-update-delta
github.com/Azure/meta-iotedge
github.com/Azure/meta-raspberrypi-adu
github.com/Azure/metaetcd
github.com/Azure/metrics-advisor-online-learning
github.com/Azure/microsoft-365-certification-quick-evaluation
github.com/Azure/microsoft-data-encryption-sdk
github.com/Azure/migration
github.com/Azure/mio-uds-windows
github.com/Azure/mirror-lake-kusto
github.com/Azure/mirrorcat
github.com/Azure/missionlz
github.com/Azure/ml-functions-package-demo
github.com/Azure/ml-modules
github.com/Azure/mlops-infra-default
github.com/Azure/mlops-project-classical-ml
github.com/Azure/mlops-project-template
github.com/Azure/mlops-starter-sklearn
github.com/Azure/mlops-templates
github.com/Azure/mlops-v2
github.com/Azure/mlops-v2-ado-demo
github.com/Azure/mlops-v2-cv-demo
github.com/Azure/mlops-v2-gha-demo
github.com/Azure/mlops-v2-training
github.com/Azure/mlops-v2-workshop
github.com/Azure/mlops-with-azureml
github.com/Azure/mlops-workshop-code-public
github.com/Azure/mobile-services-dynamics-connector
github.com/Azure/mobile-services-samples
[...]
github.com/sthagen/omforme
github.com/sthagen/operaatio
github.com/sthagen/p
github.com/sthagen/paikalta
github.com/sthagen/partitionsets
github.com/sthagen/persoonallisuus
github.com/sthagen/php-starplot
github.com/sthagen/piemap
github.com/sthagen/piipaa
github.com/sthagen/pilli
github.com/sthagen/portinvartija
github.com/sthagen/prosessilouhinta
github.com/sthagen/puhdistusalue
github.com/sthagen/puristaa
github.com/sthagen/putki
github.com/sthagen/pxsh
github.com/sthagen/python-artichoke_growth
github.com/sthagen/python-async-status-fetch
github.com/sthagen/python-async-xss-detect
github.com/sthagen/python-brm_rest_walk
github.com/sthagen/python-cppcheck_map_html
github.com/sthagen/python-docker-example
github.com/sthagen/python-fastapi-notary
github.com/sthagen/python-filter-testssl-sh-styles
github.com/sthagen/python-fixerio
github.com/sthagen/python-json_schema_compress
github.com/sthagen/python-json_schema_tangle_weave
github.com/sthagen/python-mc_flow_sim
github.com/sthagen/python-moderngl-window-proxy
github.com/sthagen/python-nano_id
github.com/sthagen/python-nocat
github.com/sthagen/python-rester
github.com/sthagen/python-scale_html_map_area_coords
github.com/sthagen/python-scar_to_sarif
github.com/sthagen/python-tabula-rasa
github.com/sthagen/python-words_of_letters
github.com/sthagen/python-xmllint_map_html
github.com/sthagen/python-zap_blank_lines
github.com/sthagen/r-piemap
github.com/sthagen/rapid-rocks
github.com/sthagen/react-quiz
github.com/sthagen/resting-fascicle
github.com/sthagen/rti
github.com/sthagen/rust-piemap
github.com/sthagen/sammen
github.com/sthagen/sevenseas-io-wmm
github.com/sthagen/sixties
github.com/sthagen/skyvandrer
github.com/sthagen/soda-behind-the-moon
github.com/sthagen/spdx-lint
github.com/sthagen/stativ
github.com/sthagen/sthagen
github.com/sthagen/subtractor
github.com/sthagen/suhteita
github.com/sthagen/swid-lint
github.com/sthagen/sync-from-upstream
github.com/sthagen/synkronoida
github.com/sthagen/taksonomia
github.com/sthagen/tallipoika
github.com/sthagen/taulukko
github.com/sthagen/tekstialue
github.com/sthagen/testaus
github.com/sthagen/thrustimate
github.com/sthagen/tietokilpailu
github.com/sthagen/too-much-planning
github.com/sthagen/trial-hurl
github.com/sthagen/turvallisuusneuvonta
github.com/sthagen/tutkia
github.com/sthagen/txen
github.com/sthagen/uhkamalli
github.com/sthagen/uuttaminen
github.com/sthagen/vaatimus
github.com/sthagen/valid-branch-names
github.com/sthagen/valokuvakokoelma
github.com/sthagen/vanhanaikainen
github.com/sthagen/vastaanottaa
github.com/sthagen/visailu
github.com/sthagen/vitriini
github.com/sthagen/weg
github.com/sthagen/whatever
github.com/sthagen/xoxo
github.com/sthagen/xten
github.com/sw360/clipython
github.com/sw360/ldapOrganizationMappingExt
github.com/sw360/sw360.github.io
github.com/sw360/sw360bdpImportService
github.com/sw360/sw360chores
github.com/sw360/sw360jsclient
github.com/sw360/sw360portal
github.com/sw360/sw360python
github.com/sw360/sw360rest
github.com/sw360/sw360slides
github.com/sw360/sw360vagrant
github.com/tauri-apps/.github
github.com/tauri-apps/automation
github.com/tauri-apps/awesome-tauri
github.com/tauri-apps/benchmark_electron
github.com/tauri-apps/benchmark_results
github.com/tauri-apps/binary-releases
github.com/tauri-apps/board-voter
github.com/tauri-apps/cargo-mobile2
github.com/tauri-apps/docusaurus-meilisearch-indexer
github.com/tauri-apps/gipfs
github.com/tauri-apps/gir-files
github.com/tauri-apps/governance-and-guidance
github.com/tauri-apps/javascriptcore-rs
github.com/tauri-apps/libappindicator-rs
github.com/tauri-apps/meetings
github.com/tauri-apps/meilisearch-docsearch
github.com/tauri-apps/msedgedriver-manifest-cache
github.com/tauri-apps/nsis-tauri-utils
github.com/tauri-apps/realworld
github.com/tauri-apps/rfcs
github.com/tauri-apps/rustdocusaurus
github.com/tauri-apps/smoke-tests
github.com/tauri-apps/soup2-rs
github.com/tauri-apps/tauri-action
github.com/tauri-apps/tauri-bindgen
github.com/tauri-apps/tauri-dialog-rs
github.com/tauri-apps/tauri-discord-bot
github.com/tauri-apps/tauri-docs
github.com/tauri-apps/tauri-forage
github.com/tauri-apps/tauri-github-bot
github.com/tauri-apps/tauri-hotkey-rs
github.com/tauri-apps/tauri-includedir
github.com/tauri-apps/tauri-inliner-rs
github.com/tauri-apps/tauri-plugin-app
github.com/tauri-apps/tauri-plugin-cli
github.com/tauri-apps/tauri-plugin-dialog
github.com/tauri-apps/tauri-plugin-localhost
github.com/tauri-apps/tauri-plugin-persisted-scope
github.com/tauri-apps/tauri-plugin-single-instance
github.com/tauri-apps/tauri-plugin-window
github.com/tauri-apps/tauri-search
github.com/tauri-apps/tauri-theia
github.com/tauri-apps/tauri-webpack
github.com/tauri-apps/tauri.studio
github.com/tauri-apps/tauricon
github.com/tauri-apps/typedocusaurus
github.com/tauri-apps/vue-cli-plugin-tauri
github.com/tauri-apps/webkit2gtk-rs
github.com/tauri-apps/window-shadows
github.com/tauri-apps/workflow-testbed
github.com/tauri-apps/wry-mobile
github.com/tekrei/ARQ-ACO
github.com/tekrei/CoverageGA
github.com/tekrei/DSAlgorithms
github.com/tekrei/EpubMetadataEditor
github.com/tekrei/FileSplitter
github.com/tekrei/GAVis
github.com/tekrei/JavaExamples
github.com/tekrei/PythonExamples
github.com/tekrei/containers
github.com/tekrei/hedos
github.com/tekrei/kaggle-competitions
github.com/tekrei/kumanifest
github.com/tenzir/.github
github.com/tenzir/awesome-tenzir
github.com/tenzir/cli-eval
github.com/tenzir/codemirror-lang-tql
github.com/tenzir/dockerized-zeek
github.com/tenzir/events
github.com/tenzir/platform
github.com/tenzir/public-roadmap
github.com/tenzir/spicy-netflow
github.com/tenzir/stix-hackathon
github.com/tenzir/threatbus
github.com/tenzir/ui-component-library
github.com/tenzir/vast-fuzzing
github.com/tenzir/zeek-mac-ages
github.com/tenzir/zeek-tenzir
github.com/terrestris/.github
github.com/terrestris/BasiGX
github.com/terrestris/IMP
github.com/terrestris/JSP-Whitelist-Proxy
github.com/terrestris/MapProxy_Workshop_Praxiseinsatz
github.com/terrestris/OpenLayersButtonGenerator
github.com/terrestris/OrKa-Vector-API
github.com/terrestris/Proj4JsDefGenerator
github.com/terrestris/SolrHeatmap
github.com/terrestris/actinia-client
github.com/terrestris/admin-extension-demo
github.com/terrestris/base-util
github.com/terrestris/colorramp
github.com/terrestris/create-react-geo-app
github.com/terrestris/cropwatch
github.com/terrestris/d3-util
github.com/terrestris/distinct-wps
github.com/terrestris/docker-geoserver
github.com/terrestris/docker-tomcat
github.com/terrestris/docker-ws
github.com/terrestris/eclipse-templates
github.com/terrestris/eslint-config-typescript
github.com/terrestris/eslint-config-typescript-react
github.com/terrestris/eurocarto2022
github.com/terrestris/foss4g-e-2014
github.com/terrestris/foss4g2021
github.com/terrestris/foss4g2023
github.com/terrestris/fossgis2018
github.com/terrestris/fossgis2019
github.com/terrestris/fossgis2020
github.com/terrestris/fossgis2021
github.com/terrestris/fossgis2022
github.com/terrestris/fossgis2023
github.com/terrestris/fossgis2023_talk_mdi
github.com/terrestris/fossgis2024
github.com/terrestris/geojson-walk
github.com/terrestris/geoserver-graphql-service
github.com/terrestris/geoserver-in-action-ws
github.com/terrestris/geoserver-introduction-ws
github.com/terrestris/geoserver-notification-http
github.com/terrestris/gitlab-runner-image
github.com/terrestris/gondolin
github.com/terrestris/gondolin-client
github.com/terrestris/helm-charts
github.com/terrestris/i18n-maven-plugin
github.com/terrestris/inverted-polygon-wps
github.com/terrestris/java2typescript
github.com/terrestris/k8s-geoserver-helm
github.com/terrestris/k8s-shogun-helm
github.com/terrestris/keycloak-dn-mapper
github.com/terrestris/keycloak-event-listener-shogun
github.com/terrestris/keycloak-oidc-group-uuid-mapper
github.com/terrestris/kind-dev-cluster
github.com/terrestris/mapfish-print-manager
github.com/terrestris/masterportal-addons
github.com/terrestris/masterportal-docker
github.com/terrestris/masterportal-webinar
github.com/terrestris/masterportal-ws
github.com/terrestris/maven-semantic-release
github.com/terrestris/momo3
github.com/terrestris/momo3-admin
github.com/terrestris/momo3-backend
github.com/terrestris/momo3-frontend
github.com/terrestris/momo3-login
github.com/terrestris/momo3-ws
github.com/terrestris/node-project-template
github.com/terrestris/ok
github.com/terrestris/ol-describe-map
github.com/terrestris/openjdk-maven-docker
github.com/terrestris/orka-styler
github.com/terrestris/orkamv-data-api-plugin
github.com/terrestris/ors-ext-client
github.com/terrestris/presentation-template
github.com/terrestris/print-loadtest
github.com/terrestris/projectsend-docker
github.com/terrestris/python-gitlab-runner
github.com/terrestris/qgis-shogun-editor
github.com/terrestris/react-geo
github.com/terrestris/react-geo-baseclient
github.com/terrestris/react-geo-client-template
github.com/terrestris/react-geo-ws
github.com/terrestris/react-util
github.com/terrestris/scrollymap
github.com/terrestris/sencha-cmd-docker
github.com/terrestris/service-worker-experiment
github.com/terrestris/shogun
github.com/terrestris/shogun-admin
github.com/terrestris/shogun-core
github.com/terrestris/shogun-demo-session-slides
github.com/terrestris/shogun-docker
github.com/terrestris/shogun-docs
github.com/terrestris/shogun-e2e-tests
github.com/terrestris/shogun-example-app
github.com/terrestris/shogun-example-kotlin
github.com/terrestris/shogun-gis-client
github.com/terrestris/shogun-gis-client-plugins
github.com/terrestris/shogun-legacy
github.com/terrestris/shogun-migrator
github.com/terrestris/shogun-util
github.com/terrestris/snappy-script-generator
github.com/terrestris/terrestris-filterfunctions
github.com/terrestris/terrestris-parent
github.com/terrestris/terrestris-utils
github.com/terrestris/timedimension-wps
github.com/terrestris/ts-estree-writer
github.com/terrestris/vectortiles
github.com/terrestris/vs-code-cheat-sheet
github.com/terrestris/watch-build-copy
github.com/terrestris/worldmap3d-productpage
github.com/tomtom-international/.github
github.com/tomtom-international/AutoStreamForAutoware
github.com/tomtom-international/BanditCameraKit-Android
github.com/tomtom-international/BanditCameraKit-iOS
github.com/tomtom-international/alertmanager-webhook-logger
github.com/tomtom-international/artifactory-trash-restore
github.com/tomtom-international/asciidoxy
github.com/tomtom-international/azure-inspector
github.com/tomtom-international/azure-pipeline-templates
github.com/tomtom-international/bitbucket-code-insight-reports
github.com/tomtom-international/cloud-healer
github.com/tomtom-international/commisery
github.com/tomtom-international/commisery-action
github.com/tomtom-international/configuration-service
github.com/tomtom-international/cookiecutter-python
github.com/tomtom-international/cpp-dependencies
github.com/tomtom-international/disrupt-berlin-challenge
github.com/tomtom-international/ebr-board
github.com/tomtom-international/ebr-connector
github.com/tomtom-international/ebr-trackerbot
github.com/tomtom-international/ev-consumption-curve
github.com/tomtom-international/geofences-creator
github.com/tomtom-international/goji-http-client
github.com/tomtom-international/grafana-inviter
github.com/tomtom-international/helm-charts
github.com/tomtom-international/homebrew-taps
github.com/tomtom-international/hopic
github.com/tomtom-international/hypertunity
github.com/tomtom-international/interview-exercises
github.com/tomtom-international/james
github.com/tomtom-international/jsl
github.com/tomtom-international/jsystemd
github.com/tomtom-international/keepachangelog-action
github.com/tomtom-international/keepachangelog-manager
github.com/tomtom-international/kotlin-tools
github.com/tomtom-international/llvm-diagnostics
github.com/tomtom-international/maps-sdk-for-web-examples
github.com/tomtom-international/migration-tutorial-android-sdk
github.com/tomtom-international/migration-tutorial-ios-sdk
github.com/tomtom-international/migration-tutorial-web-sdk
github.com/tomtom-international/open-data
github.com/tomtom-international/openlr
github.com/tomtom-international/openlr-dereferencer-python
github.com/tomtom-international/openlr-js
github.com/tomtom-international/openlr-python
github.com/tomtom-international/osm-bots
github.com/tomtom-international/pending-notifications-service
github.com/tomtom-international/pkgsrc-tomtom
github.com/tomtom-international/postman-collections
github.com/tomtom-international/premium-sp-blob
github.com/tomtom-international/process-write-stats
github.com/tomtom-international/speedtools
github.com/tomtom-international/speedtools-examples
github.com/tomtom-international/tomtom-blogpost-store-locator
github.com/tomtom-international/tomtom-international.github.io
github.com/tomtom-international/tomtom-navigation-android-examples
github.com/tomtom-international/tomtom-navigation-ios-examples
github.com/tomtom-international/tomtom-sdk-spm-core
github.com/tomtom-international/tomtom-sdk-spm-logging
github.com/tomtom-international/tomtom-sdk-spm-navigation
github.com/tomtom-international/tomtom-sdk-spm-offline
github.com/tomtom-international/tomtom-sdk-spm-telemetry
github.com/tomtom-international/tomtom-use-case-company-location-web
github.com/tomtom-international/tomtom-use-case-pizza-delivery-web
github.com/tomtom-international/tomtom-use-case-react-js-integration
github.com/tomtom-international/tomtom-use-case-store-locator
github.com/tomtom-international/tomtom-use-case-taxi-dispatcher-web
github.com/tomtom-international/tomtom-use-case-turf-integration
github.com/tomtom-international/traffic-tutorial-web-sdk
github.com/tomtom-international/updatechangelog-gradle-plugin
github.com/tomtom-international/vault-anyconfig
github.com/tomtom-international/vault-assessment-prometheus-exporter
github.com/tsandmann/arm-cortexm-toolchain-linux
github.com/tsandmann/arm-cortexm-toolchain-mac
github.com/tsandmann/arm-cortexm-toolchain-macos-arm64
github.com/tsandmann/arm-cortexm-toolchain-win64
github.com/tsandmann/arm-toolchain-linux
github.com/tsandmann/arm-toolchain-mac
github.com/tsandmann/armv6l-toolchain-linux
github.com/tsandmann/armv6l-toolchain-mac
github.com/tsandmann/armv8l-toolchain-linux
github.com/tsandmann/armv8l-toolchain-mac
github.com/tsandmann/ct-bot
github.com/tsandmann/ct-bot-hw
github.com/tsandmann/ct-bot-irbeacon
github.com/tsandmann/ct-bot-www
github.com/tsandmann/ct-sim
github.com/tsandmann/ctbot-atmega
github.com/tsandmann/ctbot-container
github.com/tsandmann/ctbot-misc
github.com/tsandmann/ctbot-motorctl
github.com/tsandmann/ctbot-teensy
github.com/tsandmann/ctbot-viewer
github.com/tsandmann/esp32-telnet2uart
github.com/tsandmann/esp8266-telnet2uart
github.com/tsandmann/freertos-posix
github.com/tsandmann/freertos-teensy-old
github.com/tsandmann/platform-linux_armv6l
github.com/utelle/SQLite3MultipleCiphers-NuGet
github.com/utelle/utelle
github.com/utelle/utelle.github.io
github.com/utelle/wxMessageCatalogs
github.com/utelle/wxpdfdoc
github.com/victorncg/DataLab
github.com/victorncg/aulas_palestras
github.com/victorncg/auxiliary
github.com/victorncg/blog_tradingcomdados
github.com/victorncg/datamining
github.com/victorncg/e-book-fin-quant
github.com/victorncg/masters_northeastern
github.com/victorncg/projetos_mentoria
github.com/victorncg/pyb3
github.com/victorncg/pythondev
github.com/victorncg/pythonforfinance
github.com/victorncg/pythonforinvestments
github.com/victorncg/pythonparaocondado
github.com/victorncg/textmining
github.com/victorncg/victorncg
github.com/volution/md5-tools
github.com/volution/simple-console-editor
github.com/volution/volution-rust-libraries
github.com/winery/.eclipsefdn
github.com/winery/BPMN4TOSCA2BPEL
github.com/winery/BPMN4TOSCAModeler
github.com/winery/mulit-repo-test
github.com/winery/multi-repo-dependency
github.com/winery/test-repository
github.com/winery/test-repository-yaml
github.com/winery/winery-topologymodeler
github.com/xboot/kicad-xlib
github.com/xboot/libcg
github.com/xboot/libonnx
github.com/xboot/xboot.github.io
github.com/xboot/xconch
github.com/xboot/xfel
github.com/xboot/xrock
github.com/yshui/-h
github.com/yshui/.files
github.com/yshui/2sftowav
github.com/yshui/DeTerminus
github.com/yshui/LiberateTime
github.com/yshui/PebbleDurr
github.com/yshui/SadOS
github.com/yshui/antiad
github.com/yshui/atomi
github.com/yshui/aur-buildorder
github.com/yshui/bcachefs-mount
github.com/yshui/borderless
github.com/yshui/briefly
github.com/yshui/bugs
github.com/yshui/cargo-bug
github.com/yshui/cfg.h
github.com/yshui/cgrouper
github.com/yshui/ci-tester
github.com/yshui/cltracer
github.com/yshui/coral
github.com/yshui/crypt-gen
github.com/yshui/cvca
github.com/yshui/data-structure-experiments
github.com/yshui/dcon
github.com/yshui/deai
github.com/yshui/debug-stories
github.com/yshui/docconfig
github.com/yshui/dotvim
github.com/yshui/dump
github.com/yshui/entangle
github.com/yshui/evolve_image
github.com/yshui/exheres
github.com/yshui/explain-algorithms
github.com/yshui/fs-test
github.com/yshui/gentoo-musl-patches
github.com/yshui/gentoo-overlay
github.com/yshui/git-clang-format-lint
github.com/yshui/hashd
github.com/yshui/index_camera_passthrough
github.com/yshui/inputsynth
github.com/yshui/job-security
github.com/yshui/keygames
github.com/yshui/klipper
github.com/yshui/ks_translate
github.com/yshui/leeway
github.com/yshui/lethe
github.com/yshui/libjimu
github.com/yshui/log-level-trace
github.com/yshui/misceltools
github.com/yshui/mite
github.com/yshui/ml_experiments
github.com/yshui/mpdscribble.js
github.com/yshui/ncproxy
github.com/yshui/netsim
github.com/yshui/nix-source
github.com/yshui/openvr-sys
github.com/yshui/pathogen
github.com/yshui/picom-xrdesktop-companion
github.com/yshui/playgsf
github.com/yshui/projection
github.com/yshui/protoplasm
github.com/yshui/puncher
github.com/yshui/resume
github.com/yshui/robot-stm32
github.com/yshui/runa
github.com/yshui/runa-adventure
github.com/yshui/sdpc
github.com/yshui/sorttabs
github.com/yshui/spdr
github.com/yshui/sync-bot
github.com/yshui/test.h
github.com/yshui/thoughts
github.com/yshui/tinyvecdeq
github.com/yshui/tooltip.nvim
github.com/yshui/tprj
github.com/yshui/uchroot
github.com/yshui/urstore
github.com/yshui/vmactions-images
github.com/yshui/wayahead
github.com/yshui/wimp
github.com/yshui/withfd
github.com/yshui/ylib
github.com/yshui/yshui
github.com/yshui/yshui.github.io
github.com/zhmu/8051emu
github.com/zhmu/ReplicAndroid
github.com/zhmu/ananas
github.com/zhmu/ananas-coreutils
github.com/zhmu/ananas-dash
github.com/zhmu/ananas-gmp
github.com/zhmu/ananas-loader
github.com/zhmu/ananas-mpc
github.com/zhmu/ananas-mpfr
github.com/zhmu/boss
github.com/zhmu/bsd-ce
github.com/zhmu/c64emu
github.com/zhmu/cc69
github.com/zhmu/diablo2
github.com/zhmu/diablo2-item-website
github.com/zhmu/dos-utils
github.com/zhmu/dotfiles
github.com/zhmu/forumax
github.com/zhmu/freedbd
github.com/zhmu/frommel
github.com/zhmu/gbemu
github.com/zhmu/geluid
github.com/zhmu/hardware
github.com/zhmu/il-jukebox
github.com/zhmu/ilios
github.com/zhmu/kissd
github.com/zhmu/libplusplus
github.com/zhmu/lunchmoney
github.com/zhmu/mad
github.com/zhmu/maze
github.com/zhmu/mini-libs
github.com/zhmu/musixbox
github.com/zhmu/netstack
github.com/zhmu/nw-tools
github.com/zhmu/nwfs
github.com/zhmu/nwserver
github.com/zhmu/obliviate
github.com/zhmu/openrom
github.com/zhmu/partyplayer
github.com/zhmu/pico-projects
github.com/zhmu/publications
github.com/zhmu/py-partyplayer
github.com/zhmu/rcc
github.com/zhmu/romdb
github.com/zhmu/rs-c64emu
github.com/zhmu/rs-partyplayer
github.com/zhmu/rssh
github.com/zhmu/rstm32
github.com/zhmu/sci-tools
github.com/zhmu/service.rink.nu
github.com/zhmu/sierra-reenigne
github.com/zhmu/snake
github.com/zhmu/snippets
github.com/zhmu/sudsol
github.com/zhmu/switchviz
github.com/zhmu/terastation-5400
github.com/zhmu/tortilla
github.com/zhmu/toy-c64emu
github.com/zhmu/wut
github.com/zhmu/x86box
github.com/zhmu/xeos
